/*---------------------------------------------------------------------------*\
| =========                 |                                                 |
| \\      /  F ield         | OpenFOAM: The Open Source CFD Toolbox           |
|  \\    /   O peration     | Version:  2212                                  |
|   \\  /    A nd           | Website:  www.openfoam.com                      |
|    \\/     M anipulation  |                                                 |
\*---------------------------------------------------------------------------*/
Build  : v2212 OPENFOAM=2212 version=v2212
Arch   : "LSB;label=32;scalar=64"
Exec   : rhoCentralFoam
Date   : Jan 04 2024
Time   : 15:35:41
Host   : nahom-HP-Pavilion-Laptop-15-eg1xxx
PID    : 20391
I/O    : uncollated
Case   : /home/nahom/OpenFOAM/chamberFoam/test/shockTubeRhoCentral
nProcs : 1
trapFpe: Floating point exception trapping enabled (FOAM_SIGFPE).
fileModificationChecking : Monitoring run-time modified files using timeStampMaster (fileModificationSkew 5, maxFileModificationPolls 20)
allowSystemOperations : Allowing user-supplied system call operations

// * * * * * * * * * * * * * * * * * * * * * * * * * * * * * * * * * * * * * //
Create time

Create mesh for time = 0

Reading thermophysical properties

Selecting thermodynamics package 
{
    type            hePsiThermo;
    mixture         pureMixture;
    transport       const;
    thermo          eConst;
    equationOfState perfectGas;
    specie          specie;
    energy          sensibleInternalEnergy;
}

 Constructed field in basicThermo constructor : p
dimensions      [1 -1 -2 0 0 0 0];

internalField   nonuniform List<scalar> 10(100000 100000 100000 100000 100000 10000 10000 10000 10000 10000);

boundaryField
{
    sides
    {
        type            zeroGradient;
    }
    empty
    {
        type            empty;
    }
}

 Constructed field in basicThermo constructor : T
dimensions      [0 0 0 1 0 0 0];

internalField   uniform 300;

boundaryField
{
    sides
    {
        type            zeroGradient;
    }
    empty
    {
        type            empty;
    }
}

Reading dictionary named thermophysicalProperties
Constructing basicThermo 
Constructing fluidThermo 
Constructing basicMixture 
Constructing specie 
Constructing equationOfState perfectGas 
Constructing sensibleInternalEnergy 
Constructing thermo derived from eConst<perfectGas<specie>> and sensibleInternalEnergy
thermo typeName eConst<perfectGas<specie>>,sensibleInternalEnergy
Constructing const transport model 
Constructing pureMixture 
Instantiated pureMixture type name pureMixture<const<eConst<perfectGas<specie>>,sensibleInternalEnergy>>
Initializing internal energy 
heCells[celli] 211500
heCells[celli] 211500
heCells[celli] 211500
heCells[celli] 211500
heCells[celli] 211500
heCells[celli] 211500
heCells[celli] 211500
heCells[celli] 211500
heCells[celli] 211500
heCells[celli] 211500
Constructing hePsiThermo 
Returning temperature from internal energy 
Returning temperature from internal energy 
Returning temperature from internal energy 
Returning temperature from internal energy 
Returning temperature from internal energy 
Returning temperature from internal energy 
Returning temperature from internal energy 
Returning temperature from internal energy 
Returning temperature from internal energy 
Returning temperature from internal energy 
Returning temperature from internal energy 
Returning temperature from internal energy 
Reading field U

rhoE at initialization dimensions      [1 -1 -2 0 0 0 0];

internalField   nonuniform List<scalar> 10(245557 245557 245557 245557 245557 24555.7 24555.7 24555.7 24555.7 24555.7);

boundaryField
{
    sides
    {
        type            calculated;
        value           nonuniform List<scalar> 2(24555.7 245557);
    }
    empty
    {
        type            empty;
    }
}

Creating turbulence model

Selecting turbulence model type laminar
Selecting laminar stress model Stokes
returning p from basicThermodimensions      [1 -1 -2 0 0 0 0];

internalField   nonuniform List<scalar> 10(100000 100000 100000 100000 100000 10000 10000 10000 10000 10000);

boundaryField
{
    sides
    {
        type            zeroGradient;
    }
    empty
    {
        type            empty;
    }
}

fluxScheme: Kurganov

Starting time loop

Mean and max Courant Numbers = 0.0174073 0.0174073
Time = 0.0001

 ------------------------Fluxes --------------------------- 
phi 
 dimensions      [1 0 -1 0 0 0 0];

internalField   nonuniform List<scalar> 9(0 0 0 0 727.574 0 0 0 0);

boundaryField
{
    sides
    {
        type            calculated;
        value           uniform 0;
    }
    empty
    {
        type            empty;
        value           nonuniform List<scalar> 0();
    }
}

phiU 
 dimensions      [1 1 -2 0 0 0 0];

oriented        oriented;

internalField   uniform (0 0 0);

boundaryField
{
    sides
    {
        type            calculated;
        value           uniform (0 0 0);
    }
    empty
    {
        type            empty;
        value           nonuniform List<vector> 0();
    }
}

phiUp 
 dimensions      [1 1 -2 0 0 0 0];

oriented        oriented;

internalField   nonuniform List<vector> 9((400000 0 0) (400000 0 0) (400000 0 0) (400000 0 0) (220000 0 0) (40000 0 0) (40000 0 0) (40000 0 0) (40000 0 0));

boundaryField
{
    sides
    {
        type            calculated;
        value           nonuniform List<vector> 2((40000 0 0) (-400000 0 0));
    }
    empty
    {
        type            empty;
        value           nonuniform List<vector> 0();
    }
}

phiEp 
 dimensions      [1 2 -3 0 0 0 0];

internalField   nonuniform List<scalar> 9(0 0 0 0 1.53882e+08 0 0 0 0);

boundaryField
{
    sides
    {
        type            calculated;
        value           uniform 0;
    }
    empty
    {
        type            empty;
        value           nonuniform List<scalar> 0();
    }
}

------------------------- Conserved quantities -------------- 
rho 
 dimensions      [1 -3 0 0 0 0 0];

internalField   nonuniform List<scalar> 10(1.16103 1.16103 1.16103 1.16103 1.16103 0.116103 0.116103 0.116103 0.116103 0.116103);

boundaryField
{
    sides
    {
        type            calculated;
        value           nonuniform List<scalar> 2(0.116103 1.16103);
    }
    empty
    {
        type            empty;
    }
}

rhoU 
 dimensions      [1 -2 -1 0 0 0 0];

internalField   uniform (0 0 0);

boundaryField
{
    sides
    {
        type            calculated;
        value           uniform (0 0 0);
    }
    empty
    {
        type            empty;
    }
}

rhoE 
 dimensions      [1 -1 -2 0 0 0 0];

internalField   nonuniform List<scalar> 10(245557 245557 245557 245557 245557 24555.7 24555.7 24555.7 24555.7 24555.7);

boundaryField
{
    sides
    {
        type            calculated;
        value           nonuniform List<scalar> 2(24555.7 245557);
    }
    empty
    {
        type            empty;
    }
}

 -------------------------------------------------------------- 
Solving for density 

diagonal:  Solving for rho, Initial residual = 0, Final residual = 0, No Iterations 0
Solving for momentum 

diagonal:  Solving for rhoUx, Initial residual = 0, Final residual = 0, No Iterations 0
Solving for energy 
diagonal:  Solving for rhoE, Initial residual = 0, Final residual = 0, No Iterations 0
--------------------Solution------------ 
rho 
 dimensions      [1 -3 0 0 0 0 0];

internalField   nonuniform List<scalar> 10(1.16103 1.16103 1.16103 1.16103 1.14284 0.134292 0.116103 0.116103 0.116103 0.116103);

boundaryField
{
    sides
    {
        type            calculated;
        value           nonuniform List<scalar> 2(0.116103 1.16103);
    }
    empty
    {
        type            empty;
    }
}

rhoU 
 dimensions      [1 -2 -1 0 0 0 0];

internalField   nonuniform List<vector> 10((0 0 0) (0 0 0) (0 0 0) (0 0 0) (4.5 0 0) (4.5 0 0) (0 0 0) (0 0 0) (0 0 0) (0 0 0));

boundaryField
{
    sides
    {
        type            calculated;
        value           uniform (0 0 0);
    }
    empty
    {
        type            empty;
    }
}

rhoE 
 dimensions      [1 -1 -2 0 0 0 0];

internalField   nonuniform List<scalar> 10(245557 245557 245557 245557 241710 28402.8 24555.7 24555.7 24555.7 24555.7);

boundaryField
{
    sides
    {
        type            calculated;
        value           nonuniform List<scalar> 2(24555.7 245557);
    }
    empty
    {
        type            empty;
    }
}

-----------------------------------------
Returning temperature from internal energy 
Returning temperature from internal energy 
Returning temperature from internal energy 
Returning temperature from internal energy 
Returning temperature from internal energy 
Returning temperature from internal energy 
Returning temperature from internal energy 
Returning temperature from internal energy 
Returning temperature from internal energy 
Returning temperature from internal energy 
Returning temperature from internal energy 
Returning temperature from internal energy 
rhoE 
 dimensions      [1 -1 -2 0 0 0 0];

internalField   nonuniform List<scalar> 10(245557 245557 245557 245557 241710 28402.8 24555.7 24555.7 24555.7 24555.7);

boundaryField
{
    sides
    {
        type            calculated;
        value           nonuniform List<scalar> 2(24555.7 245557);
    }
    empty
    {
        type            empty;
    }
}

thermo quantities after correction 
rho 
dimensions      [1 -3 0 0 0 0 0];

internalField   nonuniform List<scalar> 10(1.16103 1.16103 1.16103 1.16103 1.14284 0.134292 0.116103 0.116103 0.116103 0.116103);

boundaryField
{
    sides
    {
        type            calculated;
        value           nonuniform List<scalar> 2(0.116103 1.16103);
    }
    empty
    {
        type            empty;
    }
}

p 
dimensions      [1 -1 -2 0 0 0 0];

internalField   nonuniform List<scalar> 10(100000 100000 100000 100000 98429.7 11536 10000 10000 10000 10000);

boundaryField
{
    sides
    {
        type            zeroGradient;
    }
    empty
    {
        type            empty;
    }
}

T 
dimensions      [0 0 0 1 0 0 0];

internalField   nonuniform List<scalar> 10(300 300 300 300 299.989 299.204 300 300 300 300);

boundaryField
{
    sides
    {
        type            zeroGradient;
    }
    empty
    {
        type            empty;
    }
}

c 
dimensions      [0 1 -1 0 0 0 0];

internalField   uniform 348.147;

boundaryField
{
    sides
    {
        type            calculated;
        value           uniform 348.147;
    }
    empty
    {
        type            empty;
    }
}

ExecutionTime = 0 s  ClockTime = 0 s

Mean and max Courant Numbers = 0.0177906 0.0192757
Time = 0.0002

 ------------------------Fluxes --------------------------- 
phi 
 dimensions      [1 0 -1 0 0 0 0];

internalField   nonuniform List<scalar> 9(0 0 0 9.17578 718.3 9.70399 0 0 0);

boundaryField
{
    sides
    {
        type            calculated;
        value           uniform 0;
    }
    empty
    {
        type            empty;
        value           nonuniform List<scalar> 0();
    }
}

phiU 
 dimensions      [1 1 -2 0 0 0 0];

oriented        oriented;

internalField   nonuniform List<vector> 9((0 0 0) (0 0 0) (0 0 0) (-3115.97 0 0) (291.601 0 0) (3662.19 0 0) (0 0 0) (0 0 0) (0 0 0));

boundaryField
{
    sides
    {
        type            calculated;
        value           uniform (0 0 0);
    }
    empty
    {
        type            empty;
        value           nonuniform List<vector> 0();
    }
}

phiUp 
 dimensions      [1 1 -2 0 0 0 0];

oriented        oriented;

internalField   nonuniform List<vector> 9((400000 0 0) (400000 0 0) (400000 0 0) (396829 0 0) (227905 0 0) (43664.6 0 0) (40000 0 0) (40000 0 0) (40000 0 0));

boundaryField
{
    sides
    {
        type            calculated;
        value           nonuniform List<vector> 2((40000 0 0) (-400000 0 0));
    }
    empty
    {
        type            empty;
        value           nonuniform List<vector> 0();
    }
}

phiEp 
 dimensions      [1 2 -3 0 0 0 0];

internalField   nonuniform List<scalar> 9(0 0 0 2.70561e+06 1.53475e+08 2.88329e+06 0 0 0);

boundaryField
{
    sides
    {
        type            calculated;
        value           uniform 0;
    }
    empty
    {
        type            empty;
        value           nonuniform List<scalar> 0();
    }
}

------------------------- Conserved quantities -------------- 
rho 
 dimensions      [1 -3 0 0 0 0 0];

internalField   nonuniform List<scalar> 10(1.16103 1.16103 1.16103 1.16103 1.14284 0.134292 0.116103 0.116103 0.116103 0.116103);

boundaryField
{
    sides
    {
        type            calculated;
        value           nonuniform List<scalar> 2(0.116103 1.16103);
    }
    empty
    {
        type            empty;
    }
}

rhoU 
 dimensions      [1 -2 -1 0 0 0 0];

internalField   nonuniform List<vector> 10((0 0 0) (0 0 0) (0 0 0) (0 0 0) (4.5 0 0) (4.5 0 0) (0 0 0) (0 0 0) (0 0 0) (0 0 0));

boundaryField
{
    sides
    {
        type            calculated;
        value           uniform (0 0 0);
    }
    empty
    {
        type            empty;
    }
}

rhoE 
 dimensions      [1 -1 -2 0 0 0 0];

internalField   nonuniform List<scalar> 10(245557 245557 245557 245557 241710 28402.8 24555.7 24555.7 24555.7 24555.7);

boundaryField
{
    sides
    {
        type            calculated;
        value           nonuniform List<scalar> 2(24555.7 245557);
    }
    empty
    {
        type            empty;
    }
}

 -------------------------------------------------------------- 
Solving for density 

diagonal:  Solving for rho, Initial residual = 0, Final residual = 0, No Iterations 0
Solving for momentum 

diagonal:  Solving for rhoUx, Initial residual = 0, Final residual = 0, No Iterations 0
Solving for energy 
diagonal:  Solving for rhoE, Initial residual = 0, Final residual = 0, No Iterations 0
--------------------Solution------------ 
rho 
 dimensions      [1 -3 0 0 0 0 0];

internalField   nonuniform List<scalar> 10(1.16103 1.16103 1.16103 1.1608 1.12511 0.152007 0.116345 0.116103 0.116103 0.116103);

boundaryField
{
    sides
    {
        type            calculated;
        value           nonuniform List<scalar> 2(0.116103 1.16103);
    }
    empty
    {
        type            empty;
    }
}

rhoU 
 dimensions      [1 -2 -1 0 0 0 0];

internalField   nonuniform List<vector> 10((0 0 0) (0 0 0) (0 0 0) (0.0792818 0 0) (8.72309 0 0) (9.10602 0 0) (0.0916144 0 0) (0 0 0) (0 0 0) (0 0 0));

boundaryField
{
    sides
    {
        type            calculated;
        value           uniform (0 0 0);
    }
    empty
    {
        type            empty;
    }
}

rhoE 
 dimensions      [1 -1 -2 0 0 0 0];

internalField   nonuniform List<scalar> 10(245557 245557 245557 245490 237941 32167.6 24627.8 24555.7 24555.7 24555.7);

boundaryField
{
    sides
    {
        type            calculated;
        value           nonuniform List<scalar> 2(24555.7 245557);
    }
    empty
    {
        type            empty;
    }
}

-----------------------------------------
Returning temperature from internal energy 
Returning temperature from internal energy 
Returning temperature from internal energy 
Returning temperature from internal energy 
Returning temperature from internal energy 
Returning temperature from internal energy 
Returning temperature from internal energy 
Returning temperature from internal energy 
Returning temperature from internal energy 
Returning temperature from internal energy 
Returning temperature from internal energy 
Returning temperature from internal energy 
rhoE 
 dimensions      [1 -1 -2 0 0 0 0];

internalField   nonuniform List<scalar> 10(245557 245557 245557 245490 237941 32167.6 24627.8 24555.7 24555.7 24555.7);

boundaryField
{
    sides
    {
        type            calculated;
        value           nonuniform List<scalar> 2(24555.7 245557);
    }
    empty
    {
        type            empty;
    }
}

thermo quantities after correction 
rho 
dimensions      [1 -3 0 0 0 0 0];

internalField   nonuniform List<scalar> 10(1.16103 1.16103 1.16103 1.1608 1.12511 0.152007 0.116345 0.116103 0.116103 0.116103);

boundaryField
{
    sides
    {
        type            calculated;
        value           nonuniform List<scalar> 2(0.116103 1.16103);
    }
    empty
    {
        type            empty;
    }
}

p 
dimensions      [1 -1 -2 0 0 0 0];

internalField   nonuniform List<scalar> 10(100000 100000 100000 99972.5 96884.6 12988.8 10029.3 10000 10000 10000);

boundaryField
{
    sides
    {
        type            zeroGradient;
    }
    empty
    {
        type            empty;
    }
}

T 
dimensions      [0 0 0 1 0 0 0];

internalField   nonuniform List<scalar> 10(300 300 300 299.977 299.932 297.624 300.253 300 300 300);

boundaryField
{
    sides
    {
        type            zeroGradient;
    }
    empty
    {
        type            empty;
    }
}

c 
dimensions      [0 1 -1 0 0 0 0];

internalField   nonuniform List<scalar> 10(348.147 348.147 348.147 348.147 348.14 347.684 348.147 348.147 348.147 348.147);

boundaryField
{
    sides
    {
        type            calculated;
        value           uniform 348.147;
    }
    empty
    {
        type            empty;
    }
}

ExecutionTime = 0 s  ClockTime = 0 s

Mean and max Courant Numbers = 0.0181512 0.0210326
Time = 0.0003

 ------------------------Fluxes --------------------------- 
phi 
 dimensions      [1 0 -1 0 0 0 0];

internalField   nonuniform List<scalar> 9(0 0 0.00246127 17.5847 697.523 21.1482 0.00298533 0 0);

boundaryField
{
    sides
    {
        type            calculated;
        value           uniform 0;
    }
    empty
    {
        type            empty;
        value           nonuniform List<scalar> 0();
    }
}

phiU 
 dimensions      [1 1 -2 0 0 0 0];

oriented        oriented;

internalField   nonuniform List<vector> 9((0 0 0) (0 0 0) (-0.501728 0 0) (-5646.41 0 0) (973.21 0 0) (8362.36 0 0) (0.642072 0 0) (0 0 0) (0 0 0));

boundaryField
{
    sides
    {
        type            calculated;
        value           uniform (0 0 0);
    }
    empty
    {
        type            empty;
        value           nonuniform List<vector> 0();
    }
}

phiUp 
 dimensions      [1 1 -2 0 0 0 0];

oriented        oriented;

internalField   nonuniform List<vector> 9((400000 0 0) (400000 0 0) (399994 0 0) (393978 0 0) (232491 0 0) (48560.9 0 0) (40017.8 0 0) (40000 0 0) (40000 0 0));

boundaryField
{
    sides
    {
        type            calculated;
        value           nonuniform List<vector> 2((40000 0 0) (-400000 0 0));
    }
    empty
    {
        type            empty;
        value           nonuniform List<vector> 0();
    }
}

phiEp 
 dimensions      [1 2 -3 0 0 0 0];

internalField   nonuniform List<scalar> 9(0 0 5254.69 5.1416e+06 1.5067e+08 6.34294e+06 15205.4 0 0);

boundaryField
{
    sides
    {
        type            calculated;
        value           uniform 0;
    }
    empty
    {
        type            empty;
        value           nonuniform List<scalar> 0();
    }
}

------------------------- Conserved quantities -------------- 
rho 
 dimensions      [1 -3 0 0 0 0 0];

internalField   nonuniform List<scalar> 10(1.16103 1.16103 1.16103 1.1608 1.12511 0.152007 0.116345 0.116103 0.116103 0.116103);

boundaryField
{
    sides
    {
        type            calculated;
        value           nonuniform List<scalar> 2(0.116103 1.16103);
    }
    empty
    {
        type            empty;
    }
}

rhoU 
 dimensions      [1 -2 -1 0 0 0 0];

internalField   nonuniform List<vector> 10((0 0 0) (0 0 0) (0 0 0) (0.0792818 0 0) (8.72309 0 0) (9.10602 0 0) (0.0916144 0 0) (0 0 0) (0 0 0) (0 0 0));

boundaryField
{
    sides
    {
        type            calculated;
        value           uniform (0 0 0);
    }
    empty
    {
        type            empty;
    }
}

rhoE 
 dimensions      [1 -1 -2 0 0 0 0];

internalField   nonuniform List<scalar> 10(245557 245557 245557 245490 237941 32167.6 24627.8 24555.7 24555.7 24555.7);

boundaryField
{
    sides
    {
        type            calculated;
        value           nonuniform List<scalar> 2(24555.7 245557);
    }
    empty
    {
        type            empty;
    }
}

 -------------------------------------------------------------- 
Solving for density 

diagonal:  Solving for rho, Initial residual = 0, Final residual = 0, No Iterations 0
Solving for momentum 

diagonal:  Solving for rhoUx, Initial residual = 0, Final residual = 0, No Iterations 0
Solving for energy 
diagonal:  Solving for rhoE, Initial residual = 0, Final residual = 0, No Iterations 0
--------------------Solution------------ 
rho 
 dimensions      [1 -3 0 0 0 0 0];

internalField   nonuniform List<scalar> 10(1.16103 1.16103 1.16103 1.16036 1.10811 0.168916 0.116874 0.116103 0.116103 0.116103);

boundaryField
{
    sides
    {
        type            calculated;
        value           nonuniform List<scalar> 2(0.116103 1.16103);
    }
    empty
    {
        type            empty;
    }
}

rhoU 
 dimensions      [1 -2 -1 0 0 0 0];

internalField   nonuniform List<vector> 10((0 0 0) (0 0 0) (0.000153664 0 0) (0.229686 0 0) (12.7602 0 0) (13.7043 0 0) (0.305192 0 0) (0.000444476 0 0) (0 0 0) (0 0 0));

boundaryField
{
    sides
    {
        type            calculated;
        value           uniform (0 0 0);
    }
    empty
    {
        type            empty;
    }
}

rhoE 
 dimensions      [1 -1 -2 0 0 0 0];

internalField   nonuniform List<scalar> 10(245557 245557 245557 245361 234303 35775.8 24786 24556.1 24555.7 24555.7);

boundaryField
{
    sides
    {
        type            calculated;
        value           nonuniform List<scalar> 2(24555.7 245557);
    }
    empty
    {
        type            empty;
    }
}

-----------------------------------------
Returning temperature from internal energy 
Returning temperature from internal energy 
Returning temperature from internal energy 
Returning temperature from internal energy 
Returning temperature from internal energy 
Returning temperature from internal energy 
Returning temperature from internal energy 
Returning temperature from internal energy 
Returning temperature from internal energy 
Returning temperature from internal energy 
Returning temperature from internal energy 
Returning temperature from internal energy 
rhoE 
 dimensions      [1 -1 -2 0 0 0 0];

internalField   nonuniform List<scalar> 10(245557 245557 245557 245361 234303 35775.8 24786 24556.1 24555.7 24555.7);

boundaryField
{
    sides
    {
        type            calculated;
        value           nonuniform List<scalar> 2(24555.7 245557);
    }
    empty
    {
        type            empty;
    }
}

thermo quantities after correction 
rho 
dimensions      [1 -3 0 0 0 0 0];

internalField   nonuniform List<scalar> 10(1.16103 1.16103 1.16103 1.16036 1.10811 0.168916 0.116874 0.116103 0.116103 0.116103);

boundaryField
{
    sides
    {
        type            calculated;
        value           nonuniform List<scalar> 2(0.116103 1.16103);
    }
    empty
    {
        type            empty;
    }
}

p 
dimensions      [1 -1 -2 0 0 0 0];

internalField   nonuniform List<scalar> 10(100000 100000 99999.9 99920.2 95386.8 14342.8 10093.6 10000.2 10000 10000);

boundaryField
{
    sides
    {
        type            zeroGradient;
    }
    empty
    {
        type            empty;
    }
}

T 
dimensions      [0 0 0 1 0 0 0];

internalField   nonuniform List<scalar> 10(300 300 300 299.933 299.826 295.751 300.81 300.004 300 300);

boundaryField
{
    sides
    {
        type            zeroGradient;
    }
    empty
    {
        type            empty;
    }
}

c 
dimensions      [0 1 -1 0 0 0 0];

internalField   nonuniform List<scalar> 10(348.147 348.147 348.147 348.133 348.107 346.765 348.293 348.147 348.147 348.147);

boundaryField
{
    sides
    {
        type            calculated;
        value           uniform 348.147;
    }
    empty
    {
        type            empty;
    }
}

ExecutionTime = 0 s  ClockTime = 0 s

Mean and max Courant Numbers = 0.0184892 0.0226733
Time = 0.0004

 ------------------------Fluxes --------------------------- 
phi 
 dimensions      [1 0 -1 0 0 0 0];

internalField   nonuniform List<scalar> 9(0 2.2703e-07 0.015024 25.8066 673.48 33.9732 0.0240207 1.32063e-06 0);

boundaryField
{
    sides
    {
        type            calculated;
        value           uniform 0;
    }
    empty
    {
        type            empty;
        value           nonuniform List<scalar> 0();
    }
}

phiU 
 dimensions      [1 1 -2 0 0 0 0];

oriented        oriented;

internalField   nonuniform List<vector> 9((0 0 0) (-7.15818e-05 0 0) (-2.76796 0 0) (-7825.92 0 0) (1888.75 0 0) (13909.6 0 0) (4.41663 0 0) (0.000450728 0 0) (0 0 0));

boundaryField
{
    sides
    {
        type            calculated;
        value           uniform (0 0 0);
    }
    empty
    {
        type            empty;
        value           nonuniform List<vector> 0();
    }
}

phiUp 
 dimensions      [1 1 -2 0 0 0 0];

oriented        oriented;

internalField   nonuniform List<vector> 9((400000 0 0) (400000 0 0) (399978 0 0) (391243 0 0) (235457 0 0) (54538.8 0 0) (40061 0 0) (40000 0 0) (40000 0 0));

boundaryField
{
    sides
    {
        type            calculated;
        value           nonuniform List<vector> 2((40000 0 0) (-400000 0 0));
    }
    empty
    {
        type            empty;
        value           nonuniform List<vector> 0();
    }
}

phiEp 
 dimensions      [1 2 -3 0 0 0 0];

internalField   nonuniform List<scalar> 9(0 0.244293 18384.8 7.4879e+06 1.47164e+08 1.03341e+07 52228.7 1.78453 0);

boundaryField
{
    sides
    {
        type            calculated;
        value           uniform 0;
    }
    empty
    {
        type            empty;
        value           nonuniform List<scalar> 0();
    }
}

------------------------- Conserved quantities -------------- 
rho 
 dimensions      [1 -3 0 0 0 0 0];

internalField   nonuniform List<scalar> 10(1.16103 1.16103 1.16103 1.16036 1.10811 0.168916 0.116874 0.116103 0.116103 0.116103);

boundaryField
{
    sides
    {
        type            calculated;
        value           nonuniform List<scalar> 2(0.116103 1.16103);
    }
    empty
    {
        type            empty;
    }
}

rhoU 
 dimensions      [1 -2 -1 0 0 0 0];

internalField   nonuniform List<vector> 10((0 0 0) (0 0 0) (0.000153664 0 0) (0.229686 0 0) (12.7602 0 0) (13.7043 0 0) (0.305192 0 0) (0.000444476 0 0) (0 0 0) (0 0 0));

boundaryField
{
    sides
    {
        type            calculated;
        value           uniform (0 0 0);
    }
    empty
    {
        type            empty;
    }
}

rhoE 
 dimensions      [1 -1 -2 0 0 0 0];

internalField   nonuniform List<scalar> 10(245557 245557 245557 245361 234303 35775.8 24786 24556.1 24555.7 24555.7);

boundaryField
{
    sides
    {
        type            calculated;
        value           nonuniform List<scalar> 2(24555.7 245557);
    }
    empty
    {
        type            empty;
    }
}

 -------------------------------------------------------------- 
Solving for density 

diagonal:  Solving for rho, Initial residual = 0, Final residual = 0, No Iterations 0
Solving for momentum 

diagonal:  Solving for rhoUx, Initial residual = 0, Final residual = 0, No Iterations 0
Solving for energy 
diagonal:  Solving for rhoE, Initial residual = 0, Final residual = 0, No Iterations 0
--------------------Solution------------ 
rho 
 dimensions      [1 -3 0 0 0 0 0];

internalField   nonuniform List<scalar> 10(1.16103 1.16103 1.16103 1.15971 1.09192 0.184904 0.117723 0.116103 0.116103 0.116103);

boundaryField
{
    sides
    {
        type            calculated;
        value           nonuniform List<scalar> 2(0.116103 1.16103);
    }
    empty
    {
        type            empty;
    }
}

rhoU 
 dimensions      [1 -2 -1 0 0 0 0];

internalField   nonuniform List<vector> 10((0 0 0) (7.14391e-09 0 0) (0.000691285 0 0) (0.448083 0 0) (16.6549 0 0) (18.2272 0 0) (0.667137 0 0) (0.0019699 0 0) (5.21853e-08 0 0) (0 0 0));

boundaryField
{
    sides
    {
        type            calculated;
        value           uniform (0 0 0);
    }
    empty
    {
        type            empty;
    }
}

rhoE 
 dimensions      [1 -1 -2 0 0 0 0];

internalField   nonuniform List<scalar> 10(245557 245557 245557 245175 230811 39196.5 25043.1 24557.4 24555.7 24555.7);

boundaryField
{
    sides
    {
        type            calculated;
        value           nonuniform List<scalar> 2(24555.7 245557);
    }
    empty
    {
        type            empty;
    }
}

-----------------------------------------
Returning temperature from internal energy 
Returning temperature from internal energy 
Returning temperature from internal energy 
Returning temperature from internal energy 
Returning temperature from internal energy 
Returning temperature from internal energy 
Returning temperature from internal energy 
Returning temperature from internal energy 
Returning temperature from internal energy 
Returning temperature from internal energy 
Returning temperature from internal energy 
Returning temperature from internal energy 
rhoE 
 dimensions      [1 -1 -2 0 0 0 0];

internalField   nonuniform List<scalar> 10(245557 245557 245557 245175 230811 39196.5 25043.1 24557.4 24555.7 24555.7);

boundaryField
{
    sides
    {
        type            calculated;
        value           nonuniform List<scalar> 2(24555.7 245557);
    }
    empty
    {
        type            empty;
    }
}

thermo quantities after correction 
rho 
dimensions      [1 -3 0 0 0 0 0];

internalField   nonuniform List<scalar> 10(1.16103 1.16103 1.16103 1.15971 1.09192 0.184904 0.117723 0.116103 0.116103 0.116103);

boundaryField
{
    sides
    {
        type            calculated;
        value           nonuniform List<scalar> 2(0.116103 1.16103);
    }
    empty
    {
        type            empty;
    }
}

p 
dimensions      [1 -1 -2 0 0 0 0];

internalField   nonuniform List<scalar> 10(100000 100000 99999.8 99844.1 93943 15596.4 10197.7 10000.7 10000 10000);

boundaryField
{
    sides
    {
        type            zeroGradient;
    }
    empty
    {
        type            empty;
    }
}

T 
dimensions      [0 0 0 1 0 0 0];

internalField   nonuniform List<scalar> 10(300 300 299.999 299.872 299.666 293.793 301.721 300.019 300 300);

boundaryField
{
    sides
    {
        type            zeroGradient;
    }
    empty
    {
        type            empty;
    }
}

c 
dimensions      [0 1 -1 0 0 0 0];

internalField   nonuniform List<scalar> 10(348.147 348.147 348.147 348.108 348.045 345.673 348.616 348.149 348.147 348.147);

boundaryField
{
    sides
    {
        type            calculated;
        value           uniform 348.147;
    }
    empty
    {
        type            empty;
    }
}

ExecutionTime = 0 s  ClockTime = 0 s

Mean and max Courant Numbers = 0.0187999 0.0241707
Time = 0.0005

 ------------------------Fluxes --------------------------- 
phi 
 dimensions      [1 0 -1 0 0 0 0];

internalField   nonuniform List<scalar> 9(8.98126e-12 2.32402e-06 0.0452562 34.0708 649.35 47.8394 0.0865312 1.21578e-05 6.36646e-11);

boundaryField
{
    sides
    {
        type            calculated;
        value           uniform 0;
    }
    empty
    {
        type            empty;
        value           nonuniform List<scalar> 0();
    }
}

phiU 
 dimensions      [1 1 -2 0 0 0 0];

oriented        oriented;

internalField   nonuniform List<vector> 9((-2.48713e-09 0 0) (-0.000737597 0 0) (-7.88757 0 0) (-9760.09 0 0) (2977.85 0 0) (20048.6 0 0) (15.5927 0 0) (0.00401354 0 0) (1.81681e-08 0 0));

boundaryField
{
    sides
    {
        type            calculated;
        value           uniform (0 0 0);
    }
    empty
    {
        type            empty;
        value           nonuniform List<vector> 0();
    }
}

phiUp 
 dimensions      [1 1 -2 0 0 0 0];

oriented        oriented;

internalField   nonuniform List<vector> 9((400000 0 0) (400000 0 0) (399954 0 0) (388536 0 0) (237517 0 0) (61353.7 0 0) (40139.8 0 0) (40000 0 0) (40000 0 0));

boundaryField
{
    sides
    {
        type            calculated;
        value           nonuniform List<vector> 2((40000 0 0) (-400000 0 0));
    }
    empty
    {
        type            empty;
        value           nonuniform List<vector> 0();
    }
}

phiEp 
 dimensions      [1 2 -3 0 0 0 0];

internalField   nonuniform List<scalar> 9(4.20213e-06 2.32145 39585.4 9.81712e+06 1.436e+08 1.4783e+07 119835 15.3435 3.10596e-05);

boundaryField
{
    sides
    {
        type            calculated;
        value           uniform 0;
    }
    empty
    {
        type            empty;
        value           nonuniform List<scalar> 0();
    }
}

------------------------- Conserved quantities -------------- 
rho 
 dimensions      [1 -3 0 0 0 0 0];

internalField   nonuniform List<scalar> 10(1.16103 1.16103 1.16103 1.15971 1.09192 0.184904 0.117723 0.116103 0.116103 0.116103);

boundaryField
{
    sides
    {
        type            calculated;
        value           nonuniform List<scalar> 2(0.116103 1.16103);
    }
    empty
    {
        type            empty;
    }
}

rhoU 
 dimensions      [1 -2 -1 0 0 0 0];

internalField   nonuniform List<vector> 10((0 0 0) (7.14391e-09 0 0) (0.000691285 0 0) (0.448083 0 0) (16.6549 0 0) (18.2272 0 0) (0.667137 0 0) (0.0019699 0 0) (5.21853e-08 0 0) (0 0 0));

boundaryField
{
    sides
    {
        type            calculated;
        value           uniform (0 0 0);
    }
    empty
    {
        type            empty;
    }
}

rhoE 
 dimensions      [1 -1 -2 0 0 0 0];

internalField   nonuniform List<scalar> 10(245557 245557 245557 245175 230811 39196.5 25043.1 24557.4 24555.7 24555.7);

boundaryField
{
    sides
    {
        type            calculated;
        value           nonuniform List<scalar> 2(24555.7 245557);
    }
    empty
    {
        type            empty;
    }
}

 -------------------------------------------------------------- 
Solving for density 

diagonal:  Solving for rho, Initial residual = 0, Final residual = 0, No Iterations 0
Solving for momentum 

diagonal:  Solving for rhoUx, Initial residual = 0, Final residual = 0, No Iterations 0
Solving for energy 
diagonal:  Solving for rhoE, Initial residual = 0, Final residual = 0, No Iterations 0
--------------------Solution------------ 
rho 
 dimensions      [1 -3 0 0 0 0 0];

internalField   nonuniform List<scalar> 10(1.16103 1.16103 1.16103 1.15886 1.07654 0.199942 0.118917 0.116106 0.116103 0.116103);

boundaryField
{
    sides
    {
        type            calculated;
        value           nonuniform List<scalar> 2(0.116103 1.16103);
    }
    empty
    {
        type            empty;
    }
}

rhoU 
 dimensions      [1 -2 -1 0 0 0 0];

internalField   nonuniform List<vector> 10((1.26602e-13 0 0) (7.50302e-08 0 0) (0.00184879 0 0) (0.73352 0 0) (20.4304 0 0) (22.6313 0 0) (1.19748 0 0) (0.00546537 0 0) (5.00877e-07 0 0) (9.08585e-13 0 0));

boundaryField
{
    sides
    {
        type            calculated;
        value           nonuniform List<vector> 2((9.08585e-13 0 0) (1.26602e-13 0 0));
    }
    empty
    {
        type            empty;
    }
}

rhoE 
 dimensions      [1 -1 -2 0 0 0 0];

internalField   nonuniform List<scalar> 10(245557 245557 245556 244930 227466 42417 25409.6 24560.4 24555.7 24555.7);

boundaryField
{
    sides
    {
        type            calculated;
        value           nonuniform List<scalar> 2(24555.7 245557);
    }
    empty
    {
        type            empty;
    }
}

-----------------------------------------
Returning temperature from internal energy 
Returning temperature from internal energy 
Returning temperature from internal energy 
Returning temperature from internal energy 
Returning temperature from internal energy 
Returning temperature from internal energy 
Returning temperature from internal energy 
Returning temperature from internal energy 
Returning temperature from internal energy 
Returning temperature from internal energy 
Returning temperature from internal energy 
Returning temperature from internal energy 
rhoE 
 dimensions      [1 -1 -2 0 0 0 0];

internalField   nonuniform List<scalar> 10(245557 245557 245556 244930 227466 42417 25409.6 24560.4 24555.7 24555.7);

boundaryField
{
    sides
    {
        type            calculated;
        value           nonuniform List<scalar> 2(24555.7 245557);
    }
    empty
    {
        type            empty;
    }
}

thermo quantities after correction 
rho 
dimensions      [1 -3 0 0 0 0 0];

internalField   nonuniform List<scalar> 10(1.16103 1.16103 1.16103 1.15886 1.07654 0.199942 0.118917 0.116106 0.116103 0.116103);

boundaryField
{
    sides
    {
        type            calculated;
        value           nonuniform List<scalar> 2(0.116103 1.16103);
    }
    empty
    {
        type            empty;
    }
}

p 
dimensions      [1 -1 -2 0 0 0 0];

internalField   nonuniform List<scalar> 10(100000 100000 99999.4 99744.5 92553.7 16752.2 10345.3 10001.9 10000 10000);

boundaryField
{
    sides
    {
        type            zeroGradient;
    }
    empty
    {
        type            empty;
    }
}

T 
dimensions      [0 0 0 1 0 0 0];

internalField   nonuniform List<scalar> 10(300 300 299.998 299.792 299.453 291.831 303.015 300.05 300 300);

boundaryField
{
    sides
    {
        type            zeroGradient;
    }
    empty
    {
        type            empty;
    }
}

c 
dimensions      [0 1 -1 0 0 0 0];

internalField   nonuniform List<scalar> 10(348.147 348.147 348.146 348.072 347.953 344.526 349.144 348.158 348.147 348.147);

boundaryField
{
    sides
    {
        type            calculated;
        value           uniform 348.147;
    }
    empty
    {
        type            empty;
    }
}

ExecutionTime = 0 s  ClockTime = 0 s

Mean and max Courant Numbers = 0.0190793 0.0255018
Time = 0.0006

 ------------------------Fluxes --------------------------- 
phi 
 dimensions      [1 0 -1 0 0 0 0];

internalField   nonuniform List<scalar> 9(9.7657e-11 1.05159e-05 0.100954 42.4731 626.458 62.4266 0.222504 5.46425e-05 6.21824e-10);

boundaryField
{
    sides
    {
        type            calculated;
        value           nonuniform List<scalar> 2(3.63798e-12 -4.54747e-13);
    }
    empty
    {
        type            empty;
        value           nonuniform List<scalar> 0();
    }
}

phiU 
 dimensions      [1 1 -2 0 0 0 0];

oriented        oriented;

internalField   nonuniform List<vector> 9((-2.61215e-08 0 0) (-0.00319205 0 0) (-16.9614 0 0) (-11503.3 0 0) (4210.54 0 0) (26509.9 0 0) (40.2221 0 0) (0.0170166 0 0) (1.74378e-07 0 0));

boundaryField
{
    sides
    {
        type            calculated;
        value           nonuniform List<vector> 2((2.85377e-23 0 0) (-6.46235e-26 0 0));
    }
    empty
    {
        type            empty;
        value           nonuniform List<vector> 0();
    }
}

phiUp 
 dimensions      [1 1 -2 0 0 0 0];

oriented        oriented;

internalField   nonuniform List<vector> 9((400000 0 0) (400000 0 0) (399918 0 0) (385819 0 0) (239017 0 0) (68729.1 0 0) (40266 0 0) (40000.1 0 0) (40000 0 0));

boundaryField
{
    sides
    {
        type            calculated;
        value           nonuniform List<vector> 2((40000 0 0) (-400000 0 0));
    }
    empty
    {
        type            empty;
        value           nonuniform List<vector> 0();
    }
}

phiEp 
 dimensions      [1 2 -3 0 0 0 0];

internalField   nonuniform List<scalar> 9(4.47929e-05 9.41719 70349.9 1.21627e+07 1.4024e+08 1.95867e+07 228309 62.8429 0.000299233);

boundaryField
{
    sides
    {
        type            calculated;
        value           nonuniform List<scalar> 2(1.08406e-06 -1.49012e-07);
    }
    empty
    {
        type            empty;
        value           nonuniform List<scalar> 0();
    }
}

------------------------- Conserved quantities -------------- 
rho 
 dimensions      [1 -3 0 0 0 0 0];

internalField   nonuniform List<scalar> 10(1.16103 1.16103 1.16103 1.15886 1.07654 0.199942 0.118917 0.116106 0.116103 0.116103);

boundaryField
{
    sides
    {
        type            calculated;
        value           nonuniform List<scalar> 2(0.116103 1.16103);
    }
    empty
    {
        type            empty;
    }
}

rhoU 
 dimensions      [1 -2 -1 0 0 0 0];

internalField   nonuniform List<vector> 10((1.26602e-13 0 0) (7.50302e-08 0 0) (0.00184879 0 0) (0.73352 0 0) (20.4304 0 0) (22.6313 0 0) (1.19748 0 0) (0.00546537 0 0) (5.00877e-07 0 0) (9.08585e-13 0 0));

boundaryField
{
    sides
    {
        type            calculated;
        value           nonuniform List<vector> 2((9.08585e-13 0 0) (1.26602e-13 0 0));
    }
    empty
    {
        type            empty;
    }
}

rhoE 
 dimensions      [1 -1 -2 0 0 0 0];

internalField   nonuniform List<scalar> 10(245557 245557 245556 244930 227466 42417 25409.6 24560.4 24555.7 24555.7);

boundaryField
{
    sides
    {
        type            calculated;
        value           nonuniform List<scalar> 2(24555.7 245557);
    }
    empty
    {
        type            empty;
    }
}

 -------------------------------------------------------------- 
Solving for density 

diagonal:  Solving for rho, Initial residual = 0, Final residual = 0, No Iterations 0
Solving for momentum 

diagonal:  Solving for rhoUx, Initial residual = 0, Final residual = 0, No Iterations 0
Solving for energy 
diagonal:  Solving for rhoE, Initial residual = 0, Final residual = 0, No Iterations 0
--------------------Solution------------ 
rho 
 dimensions      [1 -3 0 0 0 0 0];

internalField   nonuniform List<scalar> 10(1.16103 1.16103 1.16102 1.1578 1.06194 0.214043 0.120472 0.116111 0.116103 0.116103);

boundaryField
{
    sides
    {
        type            calculated;
        value           nonuniform List<scalar> 2(0.116103 1.16103);
    }
    empty
    {
        type            empty;
    }
}

rhoU 
 dimensions      [1 -2 -1 0 0 0 0];

internalField   nonuniform List<vector> 10((1.43191e-12 0 0) (3.50417e-07 0 0) (0.00390565 0 0) (1.08598 0 0) (24.1004 0 0) (26.8885 0 0) (1.90906 0 0) (0.0121143 0 0) (2.33859e-06 0 0) (9.62737e-12 0 0));

boundaryField
{
    sides
    {
        type            calculated;
        value           nonuniform List<vector> 2((9.62737e-12 0 0) (1.43191e-12 0 0));
    }
    empty
    {
        type            empty;
    }
}

rhoE 
 dimensions      [1 -1 -2 0 0 0 0];

internalField   nonuniform List<scalar> 10(245557 245557 245554 244628 224264 45433.3 25893.6 24566.1 24555.7 24555.7);

boundaryField
{
    sides
    {
        type            calculated;
        value           nonuniform List<scalar> 2(24555.7 245557);
    }
    empty
    {
        type            empty;
    }
}

-----------------------------------------
Returning temperature from internal energy 
Returning temperature from internal energy 
Returning temperature from internal energy 
Returning temperature from internal energy 
Returning temperature from internal energy 
Returning temperature from internal energy 
Returning temperature from internal energy 
Returning temperature from internal energy 
Returning temperature from internal energy 
Returning temperature from internal energy 
Returning temperature from internal energy 
Returning temperature from internal energy 
rhoE 
 dimensions      [1 -1 -2 0 0 0 0];

internalField   nonuniform List<scalar> 10(245557 245557 245554 244628 224264 45433.3 25893.6 24566.1 24555.7 24555.7);

boundaryField
{
    sides
    {
        type            calculated;
        value           nonuniform List<scalar> 2(24555.7 245557);
    }
    empty
    {
        type            empty;
    }
}

thermo quantities after correction 
rho 
dimensions      [1 -3 0 0 0 0 0];

internalField   nonuniform List<scalar> 10(1.16103 1.16103 1.16102 1.1578 1.06194 0.214043 0.120472 0.116111 0.116103 0.116103);

boundaryField
{
    sides
    {
        type            calculated;
        value           nonuniform List<scalar> 2(0.116103 1.16103);
    }
    empty
    {
        type            empty;
    }
}

p 
dimensions      [1 -1 -2 0 0 0 0];

internalField   nonuniform List<scalar> 10(100000 100000 99998.6 99621.3 91217.4 17814.3 10538.7 10004.2 10000 10000);

boundaryField
{
    sides
    {
        type            zeroGradient;
    }
    empty
    {
        type            empty;
    }
}

T 
dimensions      [0 0 0 1 0 0 0];

internalField   nonuniform List<scalar> 10(300 300 299.997 299.696 299.187 289.89 304.695 300.105 300 300);

boundaryField
{
    sides
    {
        type            zeroGradient;
    }
    empty
    {
        type            empty;
    }
}

c 
dimensions      [0 1 -1 0 0 0 0];

internalField   nonuniform List<scalar> 10(348.147 348.147 348.146 348.026 347.829 343.374 349.892 348.176 348.147 348.147);

boundaryField
{
    sides
    {
        type            calculated;
        value           nonuniform List<scalar> 2(348.147 348.147);
    }
    empty
    {
        type            empty;
    }
}

ExecutionTime = 0 s  ClockTime = 0 s

Mean and max Courant Numbers = 0.019326 0.0266553
Time = 0.0007

 ------------------------Fluxes --------------------------- 
phi 
 dimensions      [1 0 -1 0 0 0 0];

internalField   nonuniform List<scalar> 9(4.69868e-10 3.35789e-05 0.190583 51.0476 605.349 77.4439 0.471533 0.000177772 2.96998e-09);

boundaryField
{
    sides
    {
        type            calculated;
        value           nonuniform List<scalar> 2(3.85256e-11 -5.91172e-12);
    }
    empty
    {
        type            empty;
        value           nonuniform List<scalar> 0();
    }
}

phiU 
 dimensions      [1 1 -2 0 0 0 0];

oriented        oriented;

internalField   nonuniform List<vector> 9((-1.21996e-07 0 0) (-0.00953468 0 0) (-31.1193 0 0) (-13085.6 0 0) (5567.56 0 0) (33051.2 0 0) (85.8828 0 0) (0.0518781 0 0) (8.1417e-07 0 0));

boundaryField
{
    sides
    {
        type            calculated;
        value           nonuniform List<vector> 2((3.19374e-21 0 0) (-7.23783e-24 0 0));
    }
    empty
    {
        type            empty;
        value           nonuniform List<vector> 0();
    }
}

phiUp 
 dimensions      [1 1 -2 0 0 0 0];

oriented        oriented;

internalField   nonuniform List<vector> 9((400000 0 0) (400000 0 0) (399868 0 0) (383075 0 0) (240145 0 0) (76405 0 0) (40452.2 0 0) (40000.2 0 0) (40000 0 0));

boundaryField
{
    sides
    {
        type            calculated;
        value           nonuniform List<vector> 2((40000 0 0) (-400000 0 0));
    }
    empty
    {
        type            empty;
        value           nonuniform List<vector> 0();
    }
}

phiEp 
 dimensions      [1 2 -3 0 0 0 0];

internalField   nonuniform List<scalar> 9(0.00021033 26.654 112722 1.45396e+07 1.3719e+08 2.46254e+07 388711 185.177 0.00140353);

boundaryField
{
    sides
    {
        type            calculated;
        value           nonuniform List<scalar> 2(1.14627e-05 -1.72853e-06);
    }
    empty
    {
        type            empty;
        value           nonuniform List<scalar> 0();
    }
}

------------------------- Conserved quantities -------------- 
rho 
 dimensions      [1 -3 0 0 0 0 0];

internalField   nonuniform List<scalar> 10(1.16103 1.16103 1.16102 1.1578 1.06194 0.214043 0.120472 0.116111 0.116103 0.116103);

boundaryField
{
    sides
    {
        type            calculated;
        value           nonuniform List<scalar> 2(0.116103 1.16103);
    }
    empty
    {
        type            empty;
    }
}

rhoU 
 dimensions      [1 -2 -1 0 0 0 0];

internalField   nonuniform List<vector> 10((1.43191e-12 0 0) (3.50417e-07 0 0) (0.00390565 0 0) (1.08598 0 0) (24.1004 0 0) (26.8885 0 0) (1.90906 0 0) (0.0121143 0 0) (2.33859e-06 0 0) (9.62737e-12 0 0));

boundaryField
{
    sides
    {
        type            calculated;
        value           nonuniform List<vector> 2((9.62737e-12 0 0) (1.43191e-12 0 0));
    }
    empty
    {
        type            empty;
    }
}

rhoE 
 dimensions      [1 -1 -2 0 0 0 0];

internalField   nonuniform List<scalar> 10(245557 245557 245554 244628 224264 45433.3 25893.6 24566.1 24555.7 24555.7);

boundaryField
{
    sides
    {
        type            calculated;
        value           nonuniform List<scalar> 2(24555.7 245557);
    }
    empty
    {
        type            empty;
    }
}

 -------------------------------------------------------------- 
Solving for density 

diagonal:  Solving for rho, Initial residual = 0, Final residual = 0, No Iterations 0
Solving for momentum 

diagonal:  Solving for rhoUx, Initial residual = 0, Final residual = 0, No Iterations 0
Solving for energy 
diagonal:  Solving for rhoE, Initial residual = 0, Final residual = 0, No Iterations 0
--------------------Solution------------ 
rho 
 dimensions      [1 -3 0 0 0 0 0];

internalField   nonuniform List<scalar> 10(1.16103 1.16103 1.16102 1.15653 1.04808 0.22724 0.122396 0.116123 0.116103 0.116103);

boundaryField
{
    sides
    {
        type            calculated;
        value           nonuniform List<scalar> 2(0.116103 1.16103);
    }
    empty
    {
        type            empty;
    }
}

rhoU 
 dimensions      [1 -2 -1 0 0 0 0];

internalField   nonuniform List<vector> 10((7.53207e-12 0 0) (1.12986e-06 0 0) (0.00720091 0 0) (1.50582 0 0) (27.6736 0 0) (30.982 0 0) (2.80788 0 0) (0.0234147 0 0) (7.75371e-06 0 0) (5.0336e-11 0 0));

boundaryField
{
    sides
    {
        type            calculated;
        value           nonuniform List<vector> 2((5.0336e-11 0 0) (7.53207e-12 0 0));
    }
    empty
    {
        type            empty;
    }
}

rhoE 
 dimensions      [1 -1 -2 0 0 0 0];

internalField   nonuniform List<scalar> 10(245557 245557 245551 244267 221198 48247.4 26499.5 24575.8 24555.8 24555.7);

boundaryField
{
    sides
    {
        type            calculated;
        value           nonuniform List<scalar> 2(24555.7 245557);
    }
    empty
    {
        type            empty;
    }
}

-----------------------------------------
Returning temperature from internal energy 
Returning temperature from internal energy 
Returning temperature from internal energy 
Returning temperature from internal energy 
Returning temperature from internal energy 
Returning temperature from internal energy 
Returning temperature from internal energy 
Returning temperature from internal energy 
Returning temperature from internal energy 
Returning temperature from internal energy 
Returning temperature from internal energy 
Returning temperature from internal energy 
rhoE 
 dimensions      [1 -1 -2 0 0 0 0];

internalField   nonuniform List<scalar> 10(245557 245557 245551 244267 221198 48247.4 26499.5 24575.8 24555.8 24555.7);

boundaryField
{
    sides
    {
        type            calculated;
        value           nonuniform List<scalar> 2(24555.7 245557);
    }
    empty
    {
        type            empty;
    }
}

thermo quantities after correction 
rho 
dimensions      [1 -3 0 0 0 0 0];

internalField   nonuniform List<scalar> 10(1.16103 1.16103 1.16102 1.15653 1.04808 0.22724 0.122396 0.116123 0.116103 0.116103);

boundaryField
{
    sides
    {
        type            calculated;
        value           nonuniform List<scalar> 2(0.116103 1.16103);
    }
    empty
    {
        type            empty;
    }
}

p 
dimensions      [1 -1 -2 0 0 0 0];

internalField   nonuniform List<scalar> 10(100000 100000 99997.5 99474.2 89931.3 18788 10778.5 10008.2 10000 10000);

boundaryField
{
    sides
    {
        type            zeroGradient;
    }
    empty
    {
        type            empty;
    }
}

T 
dimensions      [0 0 0 1 0 0 0];

internalField   nonuniform List<scalar> 10(300 300 299.995 299.582 298.868 287.978 306.728 300.193 300 300);

boundaryField
{
    sides
    {
        type            zeroGradient;
    }
    empty
    {
        type            empty;
    }
}

c 
dimensions      [0 1 -1 0 0 0 0];

internalField   nonuniform List<scalar> 10(348.147 348.147 348.145 347.97 347.674 342.23 350.86 348.208 348.147 348.147);

boundaryField
{
    sides
    {
        type            calculated;
        value           nonuniform List<scalar> 2(348.147 348.147);
    }
    empty
    {
        type            empty;
    }
}

ExecutionTime = 0 s  ClockTime = 0 s

Mean and max Courant Numbers = 0.0195406 0.0276317
Time = 0.0008

 ------------------------Fluxes --------------------------- 
phi 
 dimensions      [1 0 -1 0 0 0 0];

internalField   nonuniform List<scalar> 9(1.56604e-09 8.69607e-05 0.32341 59.7972 586.216 92.6375 0.879158 0.000477534 1.00951e-08);

boundaryField
{
    sides
    {
        type            calculated;
        value           nonuniform List<scalar> 2(2.01339e-10 -3.0127e-11);
    }
    empty
    {
        type            empty;
        value           nonuniform List<scalar> 0();
    }
}

phiU 
 dimensions      [1 1 -2 0 0 0 0];

oriented        oriented;

internalField   nonuniform List<vector> 9((-3.93354e-07 0 0) (-0.0231829 0 0) (-51.5183 0 0) (-14523.6 0 0) (7033.7 0 0) (39482 0 0) (161.308 0 0) (0.130469 0 0) (2.69941e-06 0 0));

boundaryField
{
    sides
    {
        type            calculated;
        value           nonuniform List<vector> 2((8.72907e-20 0 0) (-1.95215e-22 0 0));
    }
    empty
    {
        type            empty;
        value           nonuniform List<vector> 0();
    }
}

phiUp 
 dimensions      [1 1 -2 0 0 0 0];

oriented        oriented;

internalField   nonuniform List<vector> 9((400000 0 0) (400000 0 0) (399802 0 0) (380297 0 0) (241015 0 0) (84166.6 0 0) (40711.3 0 0) (40000.5 0 0) (40000 0 0));

boundaryField
{
    sides
    {
        type            calculated;
        value           nonuniform List<vector> 2((40000 0 0) (-400000 0 0));
    }
    empty
    {
        type            empty;
        value           nonuniform List<vector> 0();
    }
}

phiEp 
 dimensions      [1 2 -3 0 0 0 0];

internalField   nonuniform List<scalar> 9(0.00068152 61.7717 169126 1.6953e+07 1.34482e+08 2.97774e+07 612342 451.408 0.00467538);

boundaryField
{
    sides
    {
        type            calculated;
        value           nonuniform List<scalar> 2(5.9925e-05 -8.9705e-06);
    }
    empty
    {
        type            empty;
        value           nonuniform List<scalar> 0();
    }
}

------------------------- Conserved quantities -------------- 
rho 
 dimensions      [1 -3 0 0 0 0 0];

internalField   nonuniform List<scalar> 10(1.16103 1.16103 1.16102 1.15653 1.04808 0.22724 0.122396 0.116123 0.116103 0.116103);

boundaryField
{
    sides
    {
        type            calculated;
        value           nonuniform List<scalar> 2(0.116103 1.16103);
    }
    empty
    {
        type            empty;
    }
}

rhoU 
 dimensions      [1 -2 -1 0 0 0 0];

internalField   nonuniform List<vector> 10((7.53207e-12 0 0) (1.12986e-06 0 0) (0.00720091 0 0) (1.50582 0 0) (27.6736 0 0) (30.982 0 0) (2.80788 0 0) (0.0234147 0 0) (7.75371e-06 0 0) (5.0336e-11 0 0));

boundaryField
{
    sides
    {
        type            calculated;
        value           nonuniform List<vector> 2((5.0336e-11 0 0) (7.53207e-12 0 0));
    }
    empty
    {
        type            empty;
    }
}

rhoE 
 dimensions      [1 -1 -2 0 0 0 0];

internalField   nonuniform List<scalar> 10(245557 245557 245551 244267 221198 48247.4 26499.5 24575.8 24555.8 24555.7);

boundaryField
{
    sides
    {
        type            calculated;
        value           nonuniform List<scalar> 2(24555.7 245557);
    }
    empty
    {
        type            empty;
    }
}

 -------------------------------------------------------------- 
Solving for density 

diagonal:  Solving for rho, Initial residual = 0, Final residual = 0, No Iterations 0
Solving for momentum 

diagonal:  Solving for rhoUx, Initial residual = 0, Final residual = 0, No Iterations 0
Solving for energy 
diagonal:  Solving for rhoE, Initial residual = 0, Final residual = 0, No Iterations 0
--------------------Solution------------ 
rho 
 dimensions      [1 -3 0 0 0 0 0];

internalField   nonuniform List<scalar> 10(1.16103 1.16103 1.16101 1.15505 1.03492 0.23958 0.12469 0.116145 0.116103 0.116103);

boundaryField
{
    sides
    {
        type            calculated;
        value           nonuniform List<scalar> 2(0.116103 1.16103);
    }
    empty
    {
        type            empty;
    }
}

rhoU 
 dimensions      [1 -2 -1 0 0 0 0];

internalField   nonuniform List<vector> 10((2.72004e-11 0 0) (2.93624e-06 0 0) (0.0121443 0 0) (1.99345 0 0) (31.1557 0 0) (34.9032 0 0) (3.89426 0 0) (0.0411852 0 0) (2.09541e-05 0 0) (1.85307e-10 0 0));

boundaryField
{
    sides
    {
        type            calculated;
        value           nonuniform List<vector> 2((1.85307e-10 0 0) (2.72004e-11 0 0));
    }
    empty
    {
        type            empty;
    }
}

rhoE 
 dimensions      [1 -1 -2 0 0 0 0];

internalField   nonuniform List<scalar> 10(245557 245557 245547 243848 218260 50865 27228.6 24591.1 24555.8 24555.7);

boundaryField
{
    sides
    {
        type            calculated;
        value           nonuniform List<scalar> 2(24555.7 245557);
    }
    empty
    {
        type            empty;
    }
}

-----------------------------------------
Returning temperature from internal energy 
Returning temperature from internal energy 
Returning temperature from internal energy 
Returning temperature from internal energy 
Returning temperature from internal energy 
Returning temperature from internal energy 
Returning temperature from internal energy 
Returning temperature from internal energy 
Returning temperature from internal energy 
Returning temperature from internal energy 
Returning temperature from internal energy 
Returning temperature from internal energy 
rhoE 
 dimensions      [1 -1 -2 0 0 0 0];

internalField   nonuniform List<scalar> 10(245557 245557 245547 243848 218260 50865 27228.6 24591.1 24555.8 24555.7);

boundaryField
{
    sides
    {
        type            calculated;
        value           nonuniform List<scalar> 2(24555.7 245557);
    }
    empty
    {
        type            empty;
    }
}

thermo quantities after correction 
rho 
dimensions      [1 -3 0 0 0 0 0];

internalField   nonuniform List<scalar> 10(1.16103 1.16103 1.16101 1.15505 1.03492 0.23958 0.12469 0.116145 0.116103 0.116103);

boundaryField
{
    sides
    {
        type            calculated;
        value           nonuniform List<scalar> 2(0.116103 1.16103);
    }
    empty
    {
        type            empty;
    }
}

p 
dimensions      [1 -1 -2 0 0 0 0];

internalField   nonuniform List<scalar> 10(100000 100000 99995.8 99303 88692.5 19678.7 11063.7 10014.4 10000 10000);

boundaryField
{
    sides
    {
        type            zeroGradient;
    }
    empty
    {
        type            empty;
    }
}

T 
dimensions      [0 0 0 1 0 0 0];

internalField   nonuniform List<scalar> 10(300 300 299.992 299.452 298.5 286.096 309.054 300.323 300 300);

boundaryField
{
    sides
    {
        type            zeroGradient;
    }
    empty
    {
        type            empty;
    }
}

c 
dimensions      [0 1 -1 0 0 0 0];

internalField   nonuniform List<scalar> 10(348.147 348.147 348.144 347.904 347.489 341.1 352.029 348.259 348.147 348.147);

boundaryField
{
    sides
    {
        type            calculated;
        value           nonuniform List<scalar> 2(348.147 348.147);
    }
    empty
    {
        type            empty;
    }
}

ExecutionTime = 0 s  ClockTime = 0 s

Mean and max Courant Numbers = 0.0197254 0.0284406
Time = 0.0009

 ------------------------Fluxes --------------------------- 
phi 
 dimensions      [1 0 -1 0 0 0 0];

internalField   nonuniform List<scalar> 9(4.20766e-09 0.000196572 0.509516 68.7076 569.072 107.796 1.49501 0.00112732 2.8359e-08);

boundaryField
{
    sides
    {
        type            calculated;
        value           nonuniform List<scalar> 2(7.41224e-10 -1.08798e-10);
    }
    empty
    {
        type            empty;
        value           nonuniform List<scalar> 0();
    }
}

phiU 
 dimensions      [1 1 -2 0 0 0 0];

oriented        oriented;

internalField   nonuniform List<vector> 9((-1.02223e-06 0 0) (-0.0494459 0 0) (-79.3274 0 0) (-15826.1 0 0) (8595.45 0 0) (45669.6 0 0) (276.036 0 0) (0.288404 0 0) (7.42303e-06 0 0));

boundaryField
{
    sides
    {
        type            calculated;
        value           nonuniform List<vector> 2((1.18304e-18 0 0) (-2.55103e-21 0 0));
    }
    empty
    {
        type            empty;
        value           nonuniform List<vector> 0();
    }
}

phiUp 
 dimensions      [1 1 -2 0 0 0 0];

oriented        oriented;

internalField   nonuniform List<vector> 9((400000 0 0) (400000 0 0) (399717 0 0) (377487 0 0) (241700 0 0) (91853 0 0) (41056.4 0 0) (40001.1 0 0) (40000 0 0));

boundaryField
{
    sides
    {
        type            calculated;
        value           nonuniform List<vector> 2((40000 0 0) (-400000 0 0));
    }
    empty
    {
        type            empty;
        value           nonuniform List<vector> 0();
    }
}

phiEp 
 dimensions      [1 2 -3 0 0 0 0];

internalField   nonuniform List<scalar> 9(0.00178021 126.314 242290 1.94025e+07 1.32119e+08 3.49326e+07 910532 971.857 0.0131202);

boundaryField
{
    sides
    {
        type            calculated;
        value           nonuniform List<scalar> 2(0.000220612 -3.23653e-05);
    }
    empty
    {
        type            empty;
        value           nonuniform List<scalar> 0();
    }
}

------------------------- Conserved quantities -------------- 
rho 
 dimensions      [1 -3 0 0 0 0 0];

internalField   nonuniform List<scalar> 10(1.16103 1.16103 1.16101 1.15505 1.03492 0.23958 0.12469 0.116145 0.116103 0.116103);

boundaryField
{
    sides
    {
        type            calculated;
        value           nonuniform List<scalar> 2(0.116103 1.16103);
    }
    empty
    {
        type            empty;
    }
}

rhoU 
 dimensions      [1 -2 -1 0 0 0 0];

internalField   nonuniform List<vector> 10((2.72004e-11 0 0) (2.93624e-06 0 0) (0.0121443 0 0) (1.99345 0 0) (31.1557 0 0) (34.9032 0 0) (3.89426 0 0) (0.0411852 0 0) (2.09541e-05 0 0) (1.85307e-10 0 0));

boundaryField
{
    sides
    {
        type            calculated;
        value           nonuniform List<vector> 2((1.85307e-10 0 0) (2.72004e-11 0 0));
    }
    empty
    {
        type            empty;
    }
}

rhoE 
 dimensions      [1 -1 -2 0 0 0 0];

internalField   nonuniform List<scalar> 10(245557 245557 245547 243848 218260 50865 27228.6 24591.1 24555.8 24555.7);

boundaryField
{
    sides
    {
        type            calculated;
        value           nonuniform List<scalar> 2(24555.7 245557);
    }
    empty
    {
        type            empty;
    }
}

 -------------------------------------------------------------- 
Solving for density 

diagonal:  Solving for rho, Initial residual = 0, Final residual = 0, No Iterations 0
Solving for momentum 

diagonal:  Solving for rhoUx, Initial residual = 0, Final residual = 0, No Iterations 0
Solving for energy 
diagonal:  Solving for rhoE, Initial residual = 0, Final residual = 0, No Iterations 0
--------------------Solution------------ 
rho 
 dimensions      [1 -3 0 0 0 0 0];

internalField   nonuniform List<scalar> 10(1.16103 1.16103 1.161 1.15334 1.02241 0.251112 0.127347 0.116182 0.116103 0.116103);

boundaryField
{
    sides
    {
        type            calculated;
        value           nonuniform List<scalar> 2(0.116103 1.16103);
    }
    empty
    {
        type            empty;
    }
}

rhoU 
 dimensions      [1 -2 -1 0 0 0 0];

internalField   nonuniform List<vector> 10((7.83126e-11 0 0) (6.63001e-06 0 0) (0.0192248 0 0) (2.54919 0 0) (34.5504 0 0) (38.6494 0 0) (5.16418 0 0) (0.0675669 0 0) (4.93736e-05 0 0) (5.62532e-10 0 0));

boundaryField
{
    sides
    {
        type            calculated;
        value           nonuniform List<vector> 2((5.62532e-10 0 0) (7.83126e-11 0 0));
    }
    empty
    {
        type            empty;
    }
}

rhoE 
 dimensions      [1 -1 -2 0 0 0 0];

internalField   nonuniform List<scalar> 10(245557 245557 245541 243369 215442 53294.7 28079.2 24613.9 24555.8 24555.7);

boundaryField
{
    sides
    {
        type            calculated;
        value           nonuniform List<scalar> 2(24555.7 245557);
    }
    empty
    {
        type            empty;
    }
}

-----------------------------------------
Returning temperature from internal energy 
Returning temperature from internal energy 
Returning temperature from internal energy 
Returning temperature from internal energy 
Returning temperature from internal energy 
Returning temperature from internal energy 
Returning temperature from internal energy 
Returning temperature from internal energy 
Returning temperature from internal energy 
Returning temperature from internal energy 
Returning temperature from internal energy 
Returning temperature from internal energy 
rhoE 
 dimensions      [1 -1 -2 0 0 0 0];

internalField   nonuniform List<scalar> 10(245557 245557 245541 243369 215442 53294.7 28079.2 24613.9 24555.8 24555.7);

boundaryField
{
    sides
    {
        type            calculated;
        value           nonuniform List<scalar> 2(24555.7 245557);
    }
    empty
    {
        type            empty;
    }
}

thermo quantities after correction 
rho 
dimensions      [1 -3 0 0 0 0 0];

internalField   nonuniform List<scalar> 10(1.16103 1.16103 1.161 1.15334 1.02241 0.251112 0.127347 0.116182 0.116103 0.116103);

boundaryField
{
    sides
    {
        type            calculated;
        value           nonuniform List<scalar> 2(0.116103 1.16103);
    }
    empty
    {
        type            empty;
    }
}

p 
dimensions      [1 -1 -2 0 0 0 0];

internalField   nonuniform List<scalar> 10(100000 100000 99993.3 99107.5 87498.2 20492.3 11392.2 10023.7 10000 10000);

boundaryField
{
    sides
    {
        type            zeroGradient;
    }
    empty
    {
        type            empty;
    }
}

T 
dimensions      [0 0 0 1 0 0 0];

internalField   nonuniform List<scalar> 10(300 300 299.988 299.304 298.083 284.242 311.589 300.504 300 300);

boundaryField
{
    sides
    {
        type            zeroGradient;
    }
    empty
    {
        type            empty;
    }
}

c 
dimensions      [0 1 -1 0 0 0 0];

internalField   nonuniform List<scalar> 10(348.147 348.147 348.142 347.828 347.275 339.983 353.361 348.334 348.147 348.147);

boundaryField
{
    sides
    {
        type            calculated;
        value           nonuniform List<scalar> 2(348.147 348.147);
    }
    empty
    {
        type            empty;
    }
}

ExecutionTime = 0 s  ClockTime = 0 s

Mean and max Courant Numbers = 0.019884 0.0290974
Time = 0.001

 ------------------------Fluxes --------------------------- 
phi 
 dimensions      [1 0 -1 0 0 0 0];

internalField   nonuniform List<scalar> 9(9.81686e-09 0.000403507 0.759735 77.7555 553.846 122.752 2.37112 0.0024204 9.31555e-08);

boundaryField
{
    sides
    {
        type            calculated;
        value           nonuniform List<scalar> 2(2.25012e-09 -3.13321e-10);
    }
    empty
    {
        type            empty;
        value           nonuniform List<scalar> 0();
    }
}

phiU 
 dimensions      [1 1 -2 0 0 0 0];

oriented        oriented;

internalField   nonuniform List<vector> 9((-2.30819e-06 0 0) (-0.0962682 0 0) (-115.706 0 0) (-16997.7 0 0) (10240.1 0 0) (51533.3 0 0) (440.175 0 0) (0.580335 0 0) (2.5121e-05 0 0));

boundaryField
{
    sides
    {
        type            calculated;
        value           nonuniform List<vector> 2((1.09021e-17 0 0) (-2.11361e-20 0 0));
    }
    empty
    {
        type            empty;
        value           nonuniform List<vector> 0();
    }
}

phiUp 
 dimensions      [1 1 -2 0 0 0 0];

oriented        oriented;

internalField   nonuniform List<vector> 9((400000 0 0) (400000 0 0) (399608 0 0) (374650 0 0) (242250 0 0) (99353.5 0 0) (41500.8 0 0) (40002.2 0 0) (40000 0 0));

boundaryField
{
    sides
    {
        type            calculated;
        value           nonuniform List<vector> 2((40000 0 0) (-400000 0 0));
    }
    empty
    {
        type            empty;
        value           nonuniform List<vector> 0();
    }
}

phiEp 
 dimensions      [1 2 -3 0 0 0 0];

internalField   nonuniform List<scalar> 9(0.00403979 237.13 335191 2.18843e+07 1.30085e+08 4.00004e+07 1.29474e+06 1915.59 0.0438462);

boundaryField
{
    sides
    {
        type            calculated;
        value           nonuniform List<scalar> 2(0.000669707 -9.32515e-05);
    }
    empty
    {
        type            empty;
        value           nonuniform List<scalar> 0();
    }
}

------------------------- Conserved quantities -------------- 
rho 
 dimensions      [1 -3 0 0 0 0 0];

internalField   nonuniform List<scalar> 10(1.16103 1.16103 1.161 1.15334 1.02241 0.251112 0.127347 0.116182 0.116103 0.116103);

boundaryField
{
    sides
    {
        type            calculated;
        value           nonuniform List<scalar> 2(0.116103 1.16103);
    }
    empty
    {
        type            empty;
    }
}

rhoU 
 dimensions      [1 -2 -1 0 0 0 0];

internalField   nonuniform List<vector> 10((7.83126e-11 0 0) (6.63001e-06 0 0) (0.0192248 0 0) (2.54919 0 0) (34.5504 0 0) (38.6494 0 0) (5.16418 0 0) (0.0675669 0 0) (4.93736e-05 0 0) (5.62532e-10 0 0));

boundaryField
{
    sides
    {
        type            calculated;
        value           nonuniform List<vector> 2((5.62532e-10 0 0) (7.83126e-11 0 0));
    }
    empty
    {
        type            empty;
    }
}

rhoE 
 dimensions      [1 -1 -2 0 0 0 0];

internalField   nonuniform List<scalar> 10(245557 245557 245541 243369 215442 53294.7 28079.2 24613.9 24555.8 24555.7);

boundaryField
{
    sides
    {
        type            calculated;
        value           nonuniform List<scalar> 2(24555.7 245557);
    }
    empty
    {
        type            empty;
    }
}

 -------------------------------------------------------------- 
Solving for density 

diagonal:  Solving for rho, Initial residual = 0, Final residual = 0, No Iterations 0
Solving for momentum 

diagonal:  Solving for rhoUx, Initial residual = 0, Final residual = 0, No Iterations 0
Solving for energy 
diagonal:  Solving for rhoE, Initial residual = 0, Final residual = 0, No Iterations 0
--------------------Solution------------ 
rho 
 dimensions      [1 -3 0 0 0 0 0];

internalField   nonuniform List<scalar> 10(1.16103 1.16103 1.16098 1.15142 1.01051 0.261889 0.130357 0.116242 0.116103 0.116103);

boundaryField
{
    sides
    {
        type            calculated;
        value           nonuniform List<scalar> 2(0.116103 1.16103);
    }
    empty
    {
        type            empty;
    }
}

rhoU 
 dimensions      [1 -2 -1 0 0 0 0];

internalField   nonuniform List<vector> 10((1.93722e-10 0 0) (1.35643e-05 0 0) (0.0290182 0 0) (3.17313 0 0) (37.8604 0 0) (42.2218 0 0) (6.6105 0 0) (0.10503 0 0) (0.000105389 0 0) (1.82515e-09 0 0));

boundaryField
{
    sides
    {
        type            calculated;
        value           nonuniform List<vector> 2((1.82515e-09 0 0) (1.93722e-10 0 0));
    }
    empty
    {
        type            empty;
    }
}

rhoE 
 dimensions      [1 -1 -2 0 0 0 0];

internalField   nonuniform List<scalar> 10(245557 245557 245533 242830 212737 55546.8 29046.8 24646.2 24555.8 24555.7);

boundaryField
{
    sides
    {
        type            calculated;
        value           nonuniform List<scalar> 2(24555.7 245557);
    }
    empty
    {
        type            empty;
    }
}

-----------------------------------------
Returning temperature from internal energy 
Returning temperature from internal energy 
Returning temperature from internal energy 
Returning temperature from internal energy 
Returning temperature from internal energy 
Returning temperature from internal energy 
Returning temperature from internal energy 
Returning temperature from internal energy 
Returning temperature from internal energy 
Returning temperature from internal energy 
Returning temperature from internal energy 
Returning temperature from internal energy 
rhoE 
 dimensions      [1 -1 -2 0 0 0 0];

internalField   nonuniform List<scalar> 10(245557 245557 245533 242830 212737 55546.8 29046.8 24646.2 24555.8 24555.7);

boundaryField
{
    sides
    {
        type            calculated;
        value           nonuniform List<scalar> 2(24555.7 245557);
    }
    empty
    {
        type            empty;
    }
}

thermo quantities after correction 
rho 
dimensions      [1 -3 0 0 0 0 0];

internalField   nonuniform List<scalar> 10(1.16103 1.16103 1.16098 1.15142 1.01051 0.261889 0.130357 0.116242 0.116103 0.116103);

boundaryField
{
    sides
    {
        type            calculated;
        value           nonuniform List<scalar> 2(0.116103 1.16103);
    }
    empty
    {
        type            empty;
    }
}

p 
dimensions      [1 -1 -2 0 0 0 0];

internalField   nonuniform List<scalar> 10(100000 100000 99989.9 98887.5 86345.5 21234.7 11760.7 10036.8 10000 10000);

boundaryField
{
    sides
    {
        type            zeroGradient;
    }
    empty
    {
        type            empty;
    }
}

T 
dimensions      [0 0 0 1 0 0 0];

internalField   nonuniform List<scalar> 10(300 300 299.982 299.139 297.621 282.418 314.24 300.745 300.001 300);

boundaryField
{
    sides
    {
        type            zeroGradient;
    }
    empty
    {
        type            empty;
    }
}

c 
dimensions      [0 1 -1 0 0 0 0];

internalField   nonuniform List<scalar> 10(348.147 348.147 348.139 347.743 347.033 338.88 354.808 348.439 348.147 348.147);

boundaryField
{
    sides
    {
        type            calculated;
        value           nonuniform List<scalar> 2(348.147 348.147);
    }
    empty
    {
        type            empty;
    }
}

ExecutionTime = 0 s  ClockTime = 0 s

Mean and max Courant Numbers = 0.0200211 0.0296203
Time = 0.0011

 ------------------------Fluxes --------------------------- 
phi 
 dimensions      [1 0 -1 0 0 0 0];

internalField   nonuniform List<scalar> 9(2.07244e-08 0.000770218 1.08557 86.9134 540.417 137.378 3.56013 0.00482739 2.76017e-07);

boundaryField
{
    sides
    {
        type            calculated;
        value           nonuniform List<scalar> 2(7.3006e-09 -7.74889e-10);
    }
    empty
    {
        type            empty;
        value           nonuniform List<scalar> 0();
    }
}

phiU 
 dimensions      [1 1 -2 0 0 0 0];

oriented        oriented;

internalField   nonuniform List<vector> 9((-4.72231e-06 0 0) (-0.175164 0 0) (-161.78 0 0) (-18039.9 0 0) (11955.6 0 0) (57032.8 0 0) (664.572 0 0) (1.08645 0 0) (7.36301e-05 0 0));

boundaryField
{
    sides
    {
        type            calculated;
        value           nonuniform List<vector> 2((1.14766e-16 0 0) (-1.29278e-19 0 0));
    }
    empty
    {
        type            empty;
        value           nonuniform List<vector> 0();
    }
}

phiUp 
 dimensions      [1 1 -2 0 0 0 0];

oriented        oriented;

internalField   nonuniform List<vector> 9((400000 0 0) (400000 0 0) (399473 0 0) (371793 0 0) (242702 0 0) (106598 0 0) (42058.3 0 0) (40004.1 0 0) (40000 0 0));

boundaryField
{
    sides
    {
        type            calculated;
        value           nonuniform List<vector> 2((40000 0 0) (-400000 0 0));
    }
    empty
    {
        type            empty;
        value           nonuniform List<vector> 0();
    }
}

phiEp 
 dimensions      [1 2 -3 0 0 0 0];

internalField   nonuniform List<scalar> 9(0.00847359 418.303 451013 2.43931e+07 1.28353e+08 4.49129e+07 1.77698e+06 3533.61 0.129254);

boundaryField
{
    sides
    {
        type            calculated;
        value           nonuniform List<scalar> 2(0.00217288 -0.000230581);
    }
    empty
    {
        type            empty;
        value           nonuniform List<scalar> 0();
    }
}

------------------------- Conserved quantities -------------- 
rho 
 dimensions      [1 -3 0 0 0 0 0];

internalField   nonuniform List<scalar> 10(1.16103 1.16103 1.16098 1.15142 1.01051 0.261889 0.130357 0.116242 0.116103 0.116103);

boundaryField
{
    sides
    {
        type            calculated;
        value           nonuniform List<scalar> 2(0.116103 1.16103);
    }
    empty
    {
        type            empty;
    }
}

rhoU 
 dimensions      [1 -2 -1 0 0 0 0];

internalField   nonuniform List<vector> 10((1.93722e-10 0 0) (1.35643e-05 0 0) (0.0290182 0 0) (3.17313 0 0) (37.8604 0 0) (42.2218 0 0) (6.6105 0 0) (0.10503 0 0) (0.000105389 0 0) (1.82515e-09 0 0));

boundaryField
{
    sides
    {
        type            calculated;
        value           nonuniform List<vector> 2((1.82515e-09 0 0) (1.93722e-10 0 0));
    }
    empty
    {
        type            empty;
    }
}

rhoE 
 dimensions      [1 -1 -2 0 0 0 0];

internalField   nonuniform List<scalar> 10(245557 245557 245533 242830 212737 55546.8 29046.8 24646.2 24555.8 24555.7);

boundaryField
{
    sides
    {
        type            calculated;
        value           nonuniform List<scalar> 2(24555.7 245557);
    }
    empty
    {
        type            empty;
    }
}

 -------------------------------------------------------------- 
Solving for density 

diagonal:  Solving for rho, Initial residual = 0, Final residual = 0, No Iterations 0
Solving for momentum 

diagonal:  Solving for rhoUx, Initial residual = 0, Final residual = 0, No Iterations 0
Solving for energy 
diagonal:  Solving for rhoE, Initial residual = 0, Final residual = 0, No Iterations 0
--------------------Solution------------ 
rho 
 dimensions      [1 -3 0 0 0 0 0];

internalField   nonuniform List<scalar> 10(1.16103 1.16103 1.16095 1.14927 0.999172 0.271965 0.133702 0.11633 0.116103 0.116103);

boundaryField
{
    sides
    {
        type            calculated;
        value           nonuniform List<scalar> 2(0.116103 1.16103);
    }
    empty
    {
        type            empty;
    }
}

rhoU 
 dimensions      [1 -2 -1 0 0 0 0];

internalField   nonuniform List<vector> 10((4.34775e-10 0 0) (2.57966e-05 0 0) (0.0421921 0 0) (3.86511 0 0) (41.0877 0 0) (45.6244 0 0) (8.22399 0 0) (0.156384 0 0) (0.000208716 0 0) (5.5414e-09 0 0));

boundaryField
{
    sides
    {
        type            calculated;
        value           nonuniform List<vector> 2((5.5414e-09 0 0) (4.34775e-10 0 0));
    }
    empty
    {
        type            empty;
    }
}

rhoE 
 dimensions      [1 -1 -2 0 0 0 0];

internalField   nonuniform List<scalar> 10(245557 245557 245521 242231 210138 57632.8 30125.2 24690.5 24555.9 24555.7);

boundaryField
{
    sides
    {
        type            calculated;
        value           nonuniform List<scalar> 2(24555.7 245557);
    }
    empty
    {
        type            empty;
    }
}

-----------------------------------------
Returning temperature from internal energy 
Returning temperature from internal energy 
Returning temperature from internal energy 
Returning temperature from internal energy 
Returning temperature from internal energy 
Returning temperature from internal energy 
Returning temperature from internal energy 
Returning temperature from internal energy 
Returning temperature from internal energy 
Returning temperature from internal energy 
Returning temperature from internal energy 
Returning temperature from internal energy 
rhoE 
 dimensions      [1 -1 -2 0 0 0 0];

internalField   nonuniform List<scalar> 10(245557 245557 245521 242231 210138 57632.8 30125.2 24690.5 24555.9 24555.7);

boundaryField
{
    sides
    {
        type            calculated;
        value           nonuniform List<scalar> 2(24555.7 245557);
    }
    empty
    {
        type            empty;
    }
}

thermo quantities after correction 
rho 
dimensions      [1 -3 0 0 0 0 0];

[...]
        value           nonuniform List<vector> 0();
    }
}

phiEp 
 dimensions      [1 2 -3 0 0 0 0];

internalField   nonuniform List<scalar> 9(61582.5 4.18749e+06 3.71677e+07 9.54382e+07 1.33468e+08 1.19997e+08 9.82057e+07 3.5885e+07 2.44976e+06);

boundaryField
{
    sides
    {
        type            calculated;
        value           nonuniform List<scalar> 2(300765 -6930.6);
    }
    empty
    {
        type            empty;
        value           nonuniform List<scalar> 0();
    }
}

------------------------- Conserved quantities -------------- 
rho 
 dimensions      [1 -3 0 0 0 0 0];

internalField   nonuniform List<scalar> 10(1.16101 1.15883 1.12283 0.975937 0.776053 0.432051 0.300792 0.207762 0.133697 0.116599);

boundaryField
{
    sides
    {
        type            calculated;
        value           nonuniform List<scalar> 2(0.116599 1.16101);
    }
    empty
    {
        type            empty;
    }
}

rhoU 
 dimensions      [1 -2 -1 0 0 0 0];

internalField   nonuniform List<vector> 10((0.0058215 0 0) (0.788304 0 0) (13.1945 0 0) (54.1934 0 0) (110.895 0 0) (107.894 0 0) (84.4983 0 0) (43.3219 0 0) (7.92654 0 0) (0.251727 0 0));

boundaryField
{
    sides
    {
        type            calculated;
        value           nonuniform List<vector> 2((0.251501 0 0) (0.00582152 0 0));
    }
    empty
    {
        type            empty;
    }
}

rhoE 
 dimensions      [1 -1 -2 0 0 0 0];

internalField   nonuniform List<scalar> 10(245552 244883 234168 195414 155566 86957.4 74582.4 57411.1 31234.1 24771.8);

boundaryField
{
    sides
    {
        type            calculated;
        value           nonuniform List<scalar> 2(24749.6 245553);
    }
    empty
    {
        type            empty;
    }
}

 -------------------------------------------------------------- 
Solving for density 

diagonal:  Solving for rho, Initial residual = 0, Final residual = 0, No Iterations 0
Solving for momentum 

diagonal:  Solving for rhoUx, Initial residual = 0, Final residual = 0, No Iterations 0
Solving for energy 
diagonal:  Solving for rhoE, Initial residual = 0, Final residual = 0, No Iterations 0
--------------------Solution------------ 
rho 
 dimensions      [1 -3 0 0 0 0 0];

internalField   nonuniform List<scalar> 10(1.16101 1.15849 1.11997 0.970372 0.77228 0.434193 0.304385 0.212142 0.135971 0.116727);

boundaryField
{
    sides
    {
        type            calculated;
        value           nonuniform List<scalar> 2(0.116599 1.16101);
    }
    empty
    {
        type            empty;
    }
}

rhoU 
 dimensions      [1 -2 -1 0 0 0 0];

internalField   nonuniform List<vector> 10((0.00741966 0 0) (0.90877 0 0) (14.1414 0 0) (55.6268 0 0) (111.802 0 0) (108.847 0 0) (85.8107 0 0) (45.5511 0 0) (8.95108 0 0) (0.314124 0 0));

boundaryField
{
    sides
    {
        type            calculated;
        value           nonuniform List<vector> 2((0.31378 0 0) (0.00741968 0 0));
    }
    empty
    {
        type            empty;
    }
}

rhoE 
 dimensions      [1 -1 -2 0 0 0 0];

internalField   nonuniform List<scalar> 10(245551 244780 233344 193957 154615 87294.2 75127.1 58969.1 32070 24825.5);

boundaryField
{
    sides
    {
        type            calculated;
        value           nonuniform List<scalar> 2(24749.6 245553);
    }
    empty
    {
        type            empty;
    }
}

-----------------------------------------
Returning temperature from internal energy 
Returning temperature from internal energy 
Returning temperature from internal energy 
Returning temperature from internal energy 
Returning temperature from internal energy 
Returning temperature from internal energy 
Returning temperature from internal energy 
Returning temperature from internal energy 
Returning temperature from internal energy 
Returning temperature from internal energy 
Returning temperature from internal energy 
Returning temperature from internal energy 
rhoE 
 dimensions      [1 -1 -2 0 0 0 0];

internalField   nonuniform List<scalar> 10(245551 244780 233344 193957 154615 87294.2 75127.1 58969.1 32070 24825.5);

boundaryField
{
    sides
    {
        type            calculated;
        value           nonuniform List<scalar> 2(24798.3 245552);
    }
    empty
    {
        type            empty;
    }
}

thermo quantities after correction 
rho 
dimensions      [1 -3 0 0 0 0 0];

internalField   nonuniform List<scalar> 10(1.16101 1.15849 1.11997 0.970372 0.77228 0.434193 0.304385 0.212142 0.135971 0.116727);

boundaryField
{
    sides
    {
        type            calculated;
        value           nonuniform List<scalar> 2(0.116727 1.16101);
    }
    empty
    {
        type            empty;
    }
}

p 
dimensions      [1 -1 -2 0 0 0 0];

internalField   nonuniform List<scalar> 10(99997.4 99683.2 94989.7 78337.2 59669.4 29993.4 25668.7 22022.8 12940.1 10109.7);

boundaryField
{
    sides
    {
        type            zeroGradient;
    }
    empty
    {
        type            empty;
    }
}

T 
dimensions      [0 0 0 1 0 0 0];

internalField   nonuniform List<scalar> 10(299.998 299.704 295.415 281.186 269.117 240.606 293.728 361.585 331.479 301.668);

boundaryField
{
    sides
    {
        type            zeroGradient;
    }
    empty
    {
        type            empty;
    }
}

c 
dimensions      [0 1 -1 0 0 0 0];

internalField   nonuniform List<scalar> 10(348.146 347.997 345.654 337.439 330.193 312.205 345.665 381.97 364.519 348.928);

boundaryField
{
    sides
    {
        type            calculated;
        value           nonuniform List<scalar> 2(348.928 348.146);
    }
    empty
    {
        type            empty;
    }
}

ExecutionTime = 0.02 s  ClockTime = 0 s

Mean and max Courant Numbers = 0.0232559 0.0338707
Time = 0.0049

 ------------------------Fluxes --------------------------- 
phi 
 dimensions      [1 0 -1 0 0 0 0];

internalField   nonuniform List<scalar> 9(0.251981 15.5442 134.027 355.037 503.098 420.202 278.951 105.265 7.47375);

boundaryField
{
    sides
    {
        type            calculated;
        value           nonuniform List<scalar> 2(1.25512 -0.0296787);
    }
    empty
    {
        type            empty;
        value           nonuniform List<scalar> 0();
    }
}

phiU 
 dimensions      [1 1 -2 0 0 0 0];

oriented        oriented;

internalField   nonuniform List<vector> 9((-40.0182 0 0) (-1608.36 0 0) (-2304.14 0 0) (17398.9 0 0) (81193.1 0 0) (132216 0 0) (81158.6 0 0) (20607.3 0 0) (1253.67 0 0));

boundaryField
{
    sides
    {
        type            calculated;
        value           nonuniform List<vector> 2((3.37394 0 0) (-0.000189669 0 0));
    }
    empty
    {
        type            empty;
        value           nonuniform List<vector> 0();
    }
}

phiUp 
 dimensions      [1 1 -2 0 0 0 0];

oriented        oriented;

internalField   nonuniform List<vector> 9((399911 0 0) (394532 0 0) (355410 0 0) (298951 0 0) (264188 0 0) (227283 0 0) (176248 0 0) (87852.4 0 0) (43456.8 0 0));

boundaryField
{
    sides
    {
        type            calculated;
        value           nonuniform List<vector> 2((40442.1 0 0) (-399990 0 0));
    }
    empty
    {
        type            empty;
        value           nonuniform List<vector> 0();
    }
}

phiEp 
 dimensions      [1 2 -3 0 0 0 0];

internalField   nonuniform List<scalar> 9(76453.5 4.68302e+06 3.8788e+07 9.6494e+07 1.33811e+08 1.20926e+08 1.00153e+08 3.90011e+07 2.97385e+06);

boundaryField
{
    sides
    {
        type            calculated;
        value           nonuniform List<scalar> 2(375644 -8833.23);
    }
    empty
    {
        type            empty;
        value           nonuniform List<scalar> 0();
    }
}

------------------------- Conserved quantities -------------- 
rho 
 dimensions      [1 -3 0 0 0 0 0];

internalField   nonuniform List<scalar> 10(1.16101 1.15849 1.11997 0.970372 0.77228 0.434193 0.304385 0.212142 0.135971 0.116727);

boundaryField
{
    sides
    {
        type            calculated;
        value           nonuniform List<scalar> 2(0.116727 1.16101);
    }
    empty
    {
        type            empty;
    }
}

rhoU 
 dimensions      [1 -2 -1 0 0 0 0];

internalField   nonuniform List<vector> 10((0.00741966 0 0) (0.90877 0 0) (14.1414 0 0) (55.6268 0 0) (111.802 0 0) (108.847 0 0) (85.8107 0 0) (45.5511 0 0) (8.95108 0 0) (0.314124 0 0));

boundaryField
{
    sides
    {
        type            calculated;
        value           nonuniform List<vector> 2((0.31378 0 0) (0.00741968 0 0));
    }
    empty
    {
        type            empty;
    }
}

rhoE 
 dimensions      [1 -1 -2 0 0 0 0];

internalField   nonuniform List<scalar> 10(245551 244780 233344 193957 154615 87294.2 75127.1 58969.1 32070 24825.5);

boundaryField
{
    sides
    {
        type            calculated;
        value           nonuniform List<scalar> 2(24798.3 245552);
    }
    empty
    {
        type            empty;
    }
}

 -------------------------------------------------------------- 
Solving for density 

diagonal:  Solving for rho, Initial residual = 0, Final residual = 0, No Iterations 0
Solving for momentum 

diagonal:  Solving for rhoUx, Initial residual = 0, Final residual = 0, No Iterations 0
Solving for energy 
diagonal:  Solving for rhoE, Initial residual = 0, Final residual = 0, No Iterations 0
--------------------Solution------------ 
rho 
 dimensions      [1 -3 0 0 0 0 0];

internalField   nonuniform List<scalar> 10(1.161 1.15811 1.11701 0.964847 0.768578 0.436265 0.307916 0.216484 0.138416 0.116883);

boundaryField
{
    sides
    {
        type            calculated;
        value           nonuniform List<scalar> 2(0.116727 1.16101);
    }
    empty
    {
        type            empty;
    }
}

rhoU 
 dimensions      [1 -2 -1 0 0 0 0];

internalField   nonuniform List<vector> 10((0.00939703 0 0) (1.04324 0 0) (15.1194 0 0) (57.0383 0 0) (112.671 0 0) (109.769 0 0) (87.0865 0 0) (47.761 0 0) (10.061 0 0) (0.389492 0 0));

boundaryField
{
    sides
    {
        type            calculated;
        value           nonuniform List<vector> 2((0.388974 0 0) (0.00939707 0 0));
    }
    empty
    {
        type            empty;
    }
}

rhoE 
 dimensions      [1 -1 -2 0 0 0 0];

internalField   nonuniform List<scalar> 10(245549 244665 232491 192515 153682 87616.3 75646.5 60497.9 32970.7 24890.5);

boundaryField
{
    sides
    {
        type            calculated;
        value           nonuniform List<scalar> 2(24798.3 245552);
    }
    empty
    {
        type            empty;
    }
}

-----------------------------------------
Returning temperature from internal energy 
Returning temperature from internal energy 
Returning temperature from internal energy 
Returning temperature from internal energy 
Returning temperature from internal energy 
Returning temperature from internal energy 
Returning temperature from internal energy 
Returning temperature from internal energy 
Returning temperature from internal energy 
Returning temperature from internal energy 
Returning temperature from internal energy 
Returning temperature from internal energy 
rhoE 
 dimensions      [1 -1 -2 0 0 0 0];

internalField   nonuniform List<scalar> 10(245549 244665 232491 192515 153682 87616.3 75646.5 60497.9 32970.7 24890.5);

boundaryField
{
    sides
    {
        type            calculated;
        value           nonuniform List<scalar> 2(24857.4 245551);
    }
    empty
    {
        type            empty;
    }
}

thermo quantities after correction 
rho 
dimensions      [1 -3 0 0 0 0 0];

internalField   nonuniform List<scalar> 10(1.161 1.15811 1.11701 0.964847 0.768578 0.436265 0.307916 0.216484 0.138416 0.116883);

boundaryField
{
    sides
    {
        type            calculated;
        value           nonuniform List<scalar> 2(0.116883 1.161);
    }
    empty
    {
        type            empty;
    }
}

p 
dimensions      [1 -1 -2 0 0 0 0];

internalField   nonuniform List<scalar> 10(99996.7 99636.3 94637.2 77712.5 59221.9 30056.8 25790.8 22491.4 13278 10136.1);

boundaryField
{
    sides
    {
        type            zeroGradient;
    }
    empty
    {
        type            empty;
    }
}

T 
dimensions      [0 0 0 1 0 0 0];

internalField   nonuniform List<scalar> 10(299.997 299.662 295.099 280.541 268.385 239.969 291.741 361.872 334.126 302.052);

boundaryField
{
    sides
    {
        type            zeroGradient;
    }
    empty
    {
        type            empty;
    }
}

c 
dimensions      [0 1 -1 0 0 0 0];

internalField   nonuniform List<scalar> 10(348.145 347.975 345.476 337.053 329.74 311.785 344.488 382.214 365.956 349.113);

boundaryField
{
    sides
    {
        type            calculated;
        value           nonuniform List<scalar> 2(349.113 348.145);
    }
    empty
    {
        type            empty;
    }
}

ExecutionTime = 0.02 s  ClockTime = 0 s

Mean and max Courant Numbers = 0.0233437 0.0338128
Time = 0.005

 ------------------------Fluxes --------------------------- 
phi 
 dimensions      [1 0 -1 0 0 0 0];

internalField   nonuniform List<scalar> 9(0.311429 17.3474 139.892 359.193 504.493 424.294 285.472 113.612 9.05383);

boundaryField
{
    sides
    {
        type            calculated;
        value           nonuniform List<scalar> 2(1.5559 -0.0375883);
    }
    empty
    {
        type            empty;
        value           nonuniform List<scalar> 0();
    }
}

phiU 
 dimensions      [1 1 -2 0 0 0 0];

oriented        oriented;

internalField   nonuniform List<vector> 9((-49.2452 0 0) (-1752.57 0 0) (-1904.3 0 0) (19051.9 0 0) (82575.6 0 0) (133376 0 0) (83243 0 0) (22843.8 0 0) (1525.86 0 0));

boundaryField
{
    sides
    {
        type            calculated;
        value           nonuniform List<vector> 2((5.17786 0 0) (-0.000304237 0 0));
    }
    empty
    {
        type            empty;
        value           nonuniform List<vector> 0();
    }
}

phiUp 
 dimensions      [1 1 -2 0 0 0 0];

oriented        oriented;

internalField   nonuniform List<vector> 9((399890 0 0) (393910 0 0) (353590 0 0) (298032 0 0) (264735 0 0) (229027 0 0) (179382 0 0) (91999.6 0 0) (44168.2 0 0));

boundaryField
{
    sides
    {
        type            calculated;
        value           nonuniform List<vector> 2((40549.4 0 0) (-399987 0 0));
    }
    empty
    {
        type            empty;
        value           nonuniform List<vector> 0();
    }
}

phiEp 
 dimensions      [1 2 -3 0 0 0 0];

internalField   nonuniform List<scalar> 9(94343.4 5.21686e+06 4.04067e+07 9.75132e+07 1.34136e+08 1.21819e+08 1.01999e+08 4.22012e+07 3.58822e+06);

boundaryField
{
    sides
    {
        type            calculated;
        value           nonuniform List<scalar> 2(466259 -11187.3);
    }
    empty
    {
        type            empty;
        value           nonuniform List<scalar> 0();
    }
}

------------------------- Conserved quantities -------------- 
rho 
 dimensions      [1 -3 0 0 0 0 0];

internalField   nonuniform List<scalar> 10(1.161 1.15811 1.11701 0.964847 0.768578 0.436265 0.307916 0.216484 0.138416 0.116883);

boundaryField
{
    sides
    {
        type            calculated;
        value           nonuniform List<scalar> 2(0.116883 1.161);
    }
    empty
    {
        type            empty;
    }
}

rhoU 
 dimensions      [1 -2 -1 0 0 0 0];

internalField   nonuniform List<vector> 10((0.00939703 0 0) (1.04324 0 0) (15.1194 0 0) (57.0383 0 0) (112.671 0 0) (109.769 0 0) (87.0865 0 0) (47.761 0 0) (10.061 0 0) (0.389492 0 0));

boundaryField
{
    sides
    {
        type            calculated;
        value           nonuniform List<vector> 2((0.388974 0 0) (0.00939707 0 0));
    }
    empty
    {
        type            empty;
    }
}

rhoE 
 dimensions      [1 -1 -2 0 0 0 0];

internalField   nonuniform List<scalar> 10(245549 244665 232491 192515 153682 87616.3 75646.5 60497.9 32970.7 24890.5);

boundaryField
{
    sides
    {
        type            calculated;
        value           nonuniform List<scalar> 2(24857.4 245551);
    }
    empty
    {
        type            empty;
    }
}

 -------------------------------------------------------------- 
Solving for density 

diagonal:  Solving for rho, Initial residual = 0, Final residual = 0, No Iterations 0
Solving for momentum 

diagonal:  Solving for rhoUx, Initial residual = 0, Final residual = 0, No Iterations 0
Solving for energy 
diagonal:  Solving for rhoE, Initial residual = 0, Final residual = 0, No Iterations 0
--------------------Solution------------ 
rho 
 dimensions      [1 -3 0 0 0 0 0];

internalField   nonuniform List<scalar> 10(1.161 1.15768 1.11395 0.959365 0.764946 0.43827 0.311387 0.220781 0.14103 0.11707);

boundaryField
{
    sides
    {
        type            calculated;
        value           nonuniform List<scalar> 2(0.116883 1.161);
    }
    empty
    {
        type            empty;
    }
}

rhoU 
 dimensions      [1 -2 -1 0 0 0 0];

internalField   nonuniform List<vector> 10((0.0118287 0 0) (1.19274 0 0) (16.1274 0 0) (58.4272 0 0) (113.503 0 0) (110.662 0 0) (88.3277 0 0) (49.9456 0 0) (11.2568 0 0) (0.479961 0 0));

boundaryField
{
    sides
    {
        type            calculated;
        value           nonuniform List<vector> 2((0.479193 0 0) (0.0118288 0 0));
    }
    empty
    {
        type            empty;
    }
}

rhoE 
 dimensions      [1 -1 -2 0 0 0 0];

internalField   nonuniform List<scalar> 10(245547 244537 231611 191087 152767 87924.2 76142 61992.8 33936 24968.5);

boundaryField
{
    sides
    {
        type            calculated;
        value           nonuniform List<scalar> 2(24857.4 245551);
    }
    empty
    {
        type            empty;
    }
}

-----------------------------------------
Returning temperature from internal energy 
Returning temperature from internal energy 
Returning temperature from internal energy 
Returning temperature from internal energy 
Returning temperature from internal energy 
Returning temperature from internal energy 
Returning temperature from internal energy 
Returning temperature from internal energy 
Returning temperature from internal energy 
Returning temperature from internal energy 
Returning temperature from internal energy 
Returning temperature from internal energy 
rhoE 
 dimensions      [1 -1 -2 0 0 0 0];

internalField   nonuniform List<scalar> 10(245547 244537 231611 191087 152767 87924.2 76142 61992.8 33936 24968.5);

boundaryField
{
    sides
    {
        type            calculated;
        value           nonuniform List<scalar> 2(24928.6 245549);
    }
    empty
    {
        type            empty;
    }
}

thermo quantities after correction 
rho 
dimensions      [1 -3 0 0 0 0 0];

internalField   nonuniform List<scalar> 10(1.161 1.15768 1.11395 0.959365 0.764946 0.43827 0.311387 0.220781 0.14103 0.11707);

boundaryField
{
    sides
    {
        type            calculated;
        value           nonuniform List<scalar> 2(0.11707 1.161);
    }
    empty
    {
        type            empty;
    }
}

p 
dimensions      [1 -1 -2 0 0 0 0];

internalField   nonuniform List<scalar> 10(99995.9 99584 94273 77093.1 58783 30116.5 25906.2 22945.1 13637 10167.7);

boundaryField
{
    sides
    {
        type            zeroGradient;
    }
    empty
    {
        type            empty;
    }
}

T 
dimensions      [0 0 0 1 0 0 0];

internalField   nonuniform List<scalar> 10(299.996 299.615 294.772 279.895 267.661 239.346 289.779 361.987 336.801 302.51);

boundaryField
{
    sides
    {
        type            zeroGradient;
    }
    empty
    {
        type            empty;
    }
}

c 
dimensions      [0 1 -1 0 0 0 0];

internalField   nonuniform List<scalar> 10(348.145 347.95 345.291 336.666 329.292 311.372 343.321 382.366 367.415 349.335);

boundaryField
{
    sides
    {
        type            calculated;
        value           nonuniform List<scalar> 2(349.335 348.145);
    }
    empty
    {
        type            empty;
    }
}

ExecutionTime = 0.02 s  ClockTime = 0 s

End

