/*---------------------------------------------------------------------------*\
| =========                 |                                                 |
| \\      /  F ield         | OpenFOAM: The Open Source CFD Toolbox           |
|  \\    /   O peration     | Version:  2212                                  |
|   \\  /    A nd           | Website:  www.openfoam.com                      |
|    \\/     M anipulation  |                                                 |
\*---------------------------------------------------------------------------*/
Build  : 2a5099d7-20230728 OPENFOAM=2212 patch=230110 version=v2212
Arch   : "LSB;label=32;scalar=64"
Exec   : chamberFoam
Date   : Dec 08 2023
Time   : 14:15:52
Host   : nuen-mj0jdqvm.engr.tamu.edu
PID    : 2558262
I/O    : uncollated
Case   : /home/grads/n/nahom.habtemariam/OpenFOAM/chamberFoam/test/shockTube
nProcs : 1
trapFpe: Floating point exception trapping enabled (FOAM_SIGFPE).
fileModificationChecking : Monitoring run-time modified files using timeStampMaster (fileModificationSkew 5, maxFileModificationPolls 20)
allowSystemOperations : Allowing user-supplied system call operations

// * * * * * * * * * * * * * * * * * * * * * * * * * * * * * * * * * * * * * //
Create time

Create mesh for time = 0

Reading thermophysical properties

Selecting thermodynamics package 
{
    type            heMyThermo;
    mixture         pureMixture;
    transport       const;
    thermo          eTabulated;
    equationOfState tabulatedThermoEOS;
    specie          specie;
    energy          tabulatedInternalEnergy;
}

!ptr 1
field dimensions      [1 -1 -2 0 0 0 0];

internalField   nonuniform List<scalar> 10(100342 100342 100342 100342 100342 22026.5 22026.5 22026.5 22026.5 22026.5);

boundaryField
{
    sides
    {
        type            zeroGradient;
    }
    empty
    {
        type            empty;
    }
}

!ptr 1
field dimensions      [0 0 0 1 0 0 0];

internalField   nonuniform List<scalar> 10(348.432 348.432 348.432 348.432 348.432 278.746 278.746 278.746 278.746 278.746);

boundaryField
{
    sides
    {
        type            zeroGradient;
    }
    empty
    {
        type            empty;
    }
}

Reading dictionary named thermophysicalProperties
Constructing basicThermo 
Constructing fluidThermo 
Constructing myThermo 
Constructing basicMixture 
Constructing specie 
Reading component 
Reading component 
Reading component 
Reading component 
Reading component 
Constructing equationOfState tabulatedThermoEOS 
Reading component 
Constructing eTabulatedThermo 
Constructing tabulatedInternalEnergy
Constructing thermo derived from eTabulated<tabulatedThermoEOS<specie>> and tabulatedInternalEnergy
thermo typeName eTabulated<tabulatedThermoEOS<specie>>,tabulatedInternalEnergy
Constructing const transport model 
Constructing pureMixture 
Instantiated pureMixture type name pureMixture<const<eTabulated<tabulatedThermoEOS<specie>>,tabulatedInternalEnergy>>
Es(p, T) @ p=100342 T=348.432 1.51065e+07
Es(p, T) @ p=100342 T=348.432 1.51065e+07
Es(p, T) @ p=100342 T=348.432 1.51065e+07
Es(p, T) @ p=100342 T=348.432 1.51065e+07
Es(p, T) @ p=100342 T=348.432 1.51065e+07
Es(p, T) @ p=22026.5 T=278.746 1.2083e+07
Es(p, T) @ p=22026.5 T=278.746 1.2083e+07
Es(p, T) @ p=22026.5 T=278.746 1.2083e+07
Es(p, T) @ p=22026.5 T=278.746 1.2083e+07
Es(p, T) @ p=22026.5 T=278.746 1.2083e+07
Es(p, T) @ p=22026.5 T=278.746 1.2083e+07
Es(p, T) @ p=100342 T=348.432 1.51065e+07
Constructing heMyThermo 
Calculating thermo quantities 
Returning temperature from internal energy 
Here 
Internal energy 1.51065e+07
 Temperature = 345.145
Returning temperature from internal energy 
Here 
Internal energy 1.51065e+07
 Temperature = 345.145
Returning temperature from internal energy 
Here 
Internal energy 1.51065e+07
 Temperature = 345.145
Returning temperature from internal energy 
Here 
Internal energy 1.51065e+07
 Temperature = 345.145
Returning temperature from internal energy 
Here 
Internal energy 1.51065e+07
 Temperature = 345.145
Returning temperature from internal energy 
Here 
Internal energy 1.2083e+07
 Temperature = 275.968
Returning temperature from internal energy 
Here 
Internal energy 1.2083e+07
 Temperature = 275.968
Returning temperature from internal energy 
Here 
Internal energy 1.2083e+07
 Temperature = 275.968
Returning temperature from internal energy 
Here 
Internal energy 1.2083e+07
 Temperature = 275.968
Returning temperature from internal energy 
Here 
Internal energy 1.2083e+07
 Temperature = 275.968
Returning temperature from internal energy 
Here 
Internal energy 1.2083e+07
 Temperature = 275.968
Returning temperature from internal energy 
Here 
Internal energy 1.51065e+07
 Temperature = 345.145
reverse lookup in rhoTable_ 
-23.103
celli 0
reverse lookup in rhoTable_ 
-23.103
celli 1
reverse lookup in rhoTable_ 
-23.103
celli 2
reverse lookup in rhoTable_ 
-23.103
celli 3
reverse lookup in rhoTable_ 
-23.103
celli 4
reverse lookup in rhoTable_ 
5.00383e-06
celli 5
reverse lookup in rhoTable_ 
5.00383e-06
celli 6
reverse lookup in rhoTable_ 
5.00383e-06
celli 7
reverse lookup in rhoTable_ 
5.00383e-06
celli 8
reverse lookup in rhoTable_ 
5.00383e-06
celli 9
reverse lookup in rhoTable_ 
5.00383e-06
reverse lookup in rhoTable_ 
-23.103
Reading field U

Creating turbulence model

Selecting turbulence model type laminar
Selecting laminar stress model Stokes
returning p dimensions      [1 -1 -2 0 0 0 0];

internalField   nonuniform List<scalar> 10(100685 100685 100685 100685 100685 22026.5 22026.5 22026.5 22026.5 22026.5);

boundaryField
{
    sides
    {
        type            zeroGradient;
    }
    empty
    {
        type            empty;
    }
}

fluxScheme: Kurganov
Defining pressure dimensions      [1 -1 -2 0 0 0 0];

internalField   nonuniform List<scalar> 10(100685 100685 100685 100685 100685 22026.5 22026.5 22026.5 22026.5 22026.5);

boundaryField
{
    sides
    {
        type            zeroGradient;
    }
    empty
    {
        type            empty;
    }
}

Defining temperature dimensions      [0 0 0 1 0 0 0];

internalField   nonuniform List<scalar> 10(345.145 345.145 345.145 345.145 345.145 275.968 275.968 275.968 275.968 275.968);

boundaryField
{
    sides
    {
        type            zeroGradient;
    }
    empty
    {
        type            empty;
    }
}


Starting time loop

deltaT = 1.20048e-06
Mean and max Courant Numbers = 0.000595603 0.000595603
Time = 1.20048e-06

diagonal:  Solving for rho, Initial residual = 0, Final residual = 0, No Iterations 0
diagonal:  Solving for rhoUx, Initial residual = 0, Final residual = 0, No Iterations 0
diagonal:  Solving for rhoE, Initial residual = 0, Final residual = 0, No Iterations 0
dimensions      [0 2 -2 0 0 0 0];

internalField   nonuniform List<scalar> 10(1.51065e+07 1.51065e+07 1.51065e+07 1.51065e+07 1.5106e+07 1.20896e+07 1.2083e+07 1.2083e+07 1.2083e+07 1.2083e+07);

boundaryField
{
    sides
    {
        type            gradientEnergy;
        gradient        uniform 0;
        value           nonuniform List<scalar> 2(1.2083e+07 1.51065e+07);
    }
    empty
    {
        type            empty;
    }
}

Es(p, T) @ p=22026.5 T=275.968 1.19628e+07
Es(p, T) @ p=100685 T=345.145 1.49636e+07
Es(p, T) @ p=22026.5 T=275.968 1.19628e+07
Es(p, T) @ p=100685 T=345.145 1.49636e+07
Correcting thermo quantities 
Calculating thermo quantities 
Returning temperature from internal energy 
Here 
Internal energy 1.51065e+07
 Temperature = 345.145
Returning temperature from internal energy 
Here 
Internal energy 1.51065e+07
 Temperature = 345.145
Returning temperature from internal energy 
Here 
Internal energy 1.51065e+07
 Temperature = 345.145
Returning temperature from internal energy 
Here 
Internal energy 1.51065e+07
 Temperature = 345.145
Returning temperature from internal energy 
Here 
Internal energy 1.5106e+07
 Temperature = 345.133
Returning temperature from internal energy 
Here 
Internal energy 1.20896e+07
 Temperature = 276.118
Returning temperature from internal energy 
Here 
Internal energy 1.2083e+07
 Temperature = 275.968
Returning temperature from internal energy 
Here 
Internal energy 1.2083e+07
 Temperature = 275.968
Returning temperature from internal energy 
Here 
Internal energy 1.2083e+07
 Temperature = 275.968
Returning temperature from internal energy 
Here 
Internal energy 1.2083e+07
 Temperature = 275.968
Returning temperature from internal energy 
Here 
Internal energy 1.2083e+07
 Temperature = 275.968
Returning temperature from internal energy 
Here 
Internal energy 1.51065e+07
 Temperature = 345.145
reverse lookup in rhoTable_ 
-23.092
celli 0
reverse lookup in rhoTable_ 
-23.092
celli 1
reverse lookup in rhoTable_ 
-23.092
celli 2
reverse lookup in rhoTable_ 
-23.092
celli 3
reverse lookup in rhoTable_ 
-23.092
celli 4
reverse lookup in rhoTable_ 
5.00383e-06
celli 5
reverse lookup in rhoTable_ 
5.00383e-06
celli 6
reverse lookup in rhoTable_ 
5.00383e-06
celli 7
reverse lookup in rhoTable_ 
5.00383e-06
celli 8
reverse lookup in rhoTable_ 
5.00383e-06
celli 9
reverse lookup in rhoTable_ 
5.00383e-06
reverse lookup in rhoTable_ 
-23.092
ExecutionTime = 0.01 s  ClockTime = 0 s

deltaT = 1.44127e-06
Mean and max Courant Numbers = 0.00071507 0.000715081
Time = 2.64175e-06

diagonal:  Solving for rho, Initial residual = 0, Final residual = 0, No Iterations 0
diagonal:  Solving for rhoUx, Initial residual = 0, Final residual = 0, No Iterations 0
diagonal:  Solving for rhoE, Initial residual = 0, Final residual = 0, No Iterations 0
dimensions      [0 2 -2 0 0 0 0];

internalField   nonuniform List<scalar> 10(1.51065e+07 1.51065e+07 1.51065e+07 1.51065e+07 1.51054e+07 1.20974e+07 1.2083e+07 1.2083e+07 1.2083e+07 1.2083e+07);

boundaryField
{
    sides
    {
        type            gradientEnergy;
        gradient        uniform 0;
        value           nonuniform List<scalar> 2(1.2083e+07 1.51065e+07);
    }
    empty
    {
        type            empty;
    }
}

Es(p, T) @ p=22026.5 T=275.968 1.19628e+07
Es(p, T) @ p=101030 T=345.145 1.49636e+07
Es(p, T) @ p=22026.5 T=275.968 1.19628e+07
Es(p, T) @ p=101030 T=345.145 1.49636e+07
Correcting thermo quantities 
Calculating thermo quantities 
Returning temperature from internal energy 
Here 
Internal energy 1.51065e+07
 Temperature = 345.145
Returning temperature from internal energy 
Here 
Internal energy 1.51065e+07
 Temperature = 345.145
Returning temperature from internal energy 
Here 
Internal energy 1.51065e+07
 Temperature = 345.145
Returning temperature from internal energy 
Here 
Internal energy 1.51065e+07
 Temperature = 345.145
Returning temperature from internal energy 
Here 
Internal energy 1.51054e+07
 Temperature = 345.12
Returning temperature from internal energy 
Here 
Internal energy 1.20974e+07
 Temperature = 276.297
Returning temperature from internal energy 
Here 
Internal energy 1.2083e+07
 Temperature = 275.968
Returning temperature from internal energy 
Here 
Internal energy 1.2083e+07
 Temperature = 275.968
Returning temperature from internal energy 
Here 
Internal energy 1.2083e+07
 Temperature = 275.968
Returning temperature from internal energy 
Here 
Internal energy 1.2083e+07
 Temperature = 275.968
Returning temperature from internal energy 
Here 
Internal energy 1.2083e+07
 Temperature = 275.968
Returning temperature from internal energy 
Here 
Internal energy 1.51065e+07
 Temperature = 345.145
reverse lookup in rhoTable_ 
-23.081
celli 0
reverse lookup in rhoTable_ 
-23.081
celli 1
reverse lookup in rhoTable_ 
-23.081
celli 2
reverse lookup in rhoTable_ 
-23.081
celli 3
reverse lookup in rhoTable_ 
-23.081
celli 4
reverse lookup in rhoTable_ 
5.00383e-06
celli 5
reverse lookup in rhoTable_ 
5.00383e-06
celli 6
reverse lookup in rhoTable_ 
5.00383e-06
celli 7
reverse lookup in rhoTable_ 
5.00383e-06
celli 8
reverse lookup in rhoTable_ 
5.00383e-06
celli 9
reverse lookup in rhoTable_ 
5.00383e-06
reverse lookup in rhoTable_ 
-23.081
ExecutionTime = 0.01 s  ClockTime = 0 s

deltaT = 1.72852e-06
Mean and max Courant Numbers = 0.000857593 0.00085762
Time = 4.37027e-06

diagonal:  Solving for rho, Initial residual = 0, Final residual = 0, No Iterations 0
diagonal:  Solving for rhoUx, Initial residual = 0, Final residual = 0, No Iterations 0
diagonal:  Solving for rhoE, Initial residual = 0, Final residual = 0, No Iterations 0
dimensions      [0 2 -2 0 0 0 0];

internalField   nonuniform List<scalar> 10(1.51065e+07 1.51065e+07 1.51065e+07 1.51065e+07 1.51047e+07 1.21067e+07 1.2083e+07 1.2083e+07 1.2083e+07 1.2083e+07);

boundaryField
{
    sides
    {
        type            gradientEnergy;
        gradient        uniform 0;
        value           nonuniform List<scalar> 2(1.2083e+07 1.51065e+07);
    }
    empty
    {
        type            empty;
    }
}

Es(p, T) @ p=22026.5 T=275.968 1.19628e+07
Es(p, T) @ p=101375 T=345.145 1.49636e+07
Es(p, T) @ p=22026.5 T=275.968 1.19628e+07
Es(p, T) @ p=101375 T=345.145 1.49636e+07
Correcting thermo quantities 
Calculating thermo quantities 
Returning temperature from internal energy 
Here 
Internal energy 1.51065e+07
 Temperature = 345.145
Returning temperature from internal energy 
Here 
Internal energy 1.51065e+07
 Temperature = 345.145
Returning temperature from internal energy 
Here 
Internal energy 1.51065e+07
 Temperature = 345.145
Returning temperature from internal energy 
Here 
Internal energy 1.51065e+07
 Temperature = 345.145
Returning temperature from internal energy 
Here 
Internal energy 1.51047e+07
 Temperature = 345.104
Returning temperature from internal energy 
Here 
Internal energy 1.21067e+07
 Temperature = 276.51
Returning temperature from internal energy 
Here 
Internal energy 1.2083e+07
 Temperature = 275.968
Returning temperature from internal energy 
Here 
Internal energy 1.2083e+07
 Temperature = 275.968
Returning temperature from internal energy 
Here 
Internal energy 1.2083e+07
 Temperature = 275.968
Returning temperature from internal energy 
Here 
Internal energy 1.2083e+07
 Temperature = 275.968
Returning temperature from internal energy 
Here 
Internal energy 1.2083e+07
 Temperature = 275.968
Returning temperature from internal energy 
Here 
Internal energy 1.51065e+07
 Temperature = 345.145
reverse lookup in rhoTable_ 
-23.07
celli 0
reverse lookup in rhoTable_ 
-23.07
celli 1
reverse lookup in rhoTable_ 
-23.07
celli 2
reverse lookup in rhoTable_ 
-23.07
celli 3
reverse lookup in rhoTable_ 
-23.0701
celli 4
reverse lookup in rhoTable_ 
5.00383e-06
celli 5
reverse lookup in rhoTable_ 
5.00383e-06
celli 6
reverse lookup in rhoTable_ 
5.00383e-06
celli 7
reverse lookup in rhoTable_ 
5.00383e-06
celli 8
reverse lookup in rhoTable_ 
5.00383e-06
celli 9
reverse lookup in rhoTable_ 
5.00383e-06
reverse lookup in rhoTable_ 
-23.07
ExecutionTime = 0.01 s  ClockTime = 0 s

deltaT = 2.07423e-06
Mean and max Courant Numbers = 0.00102912 0.00102917
Time = 6.4445e-06

diagonal:  Solving for rho, Initial residual = 0, Final residual = 0, No Iterations 0
diagonal:  Solving for rhoUx, Initial residual = 0, Final residual = 0, No Iterations 0
diagonal:  Solving for rhoE, Initial residual = 0, Final residual = 0, No Iterations 0
dimensions      [0 2 -2 0 0 0 0];

internalField   nonuniform List<scalar> 10(1.51065e+07 1.51065e+07 1.51065e+07 1.51065e+07 1.51039e+07 1.21178e+07 1.2083e+07 1.2083e+07 1.2083e+07 1.2083e+07);

boundaryField
{
    sides
    {
        type            gradientEnergy;
        gradient        uniform 0;
        value           nonuniform List<scalar> 2(1.2083e+07 1.51065e+07);
    }
    empty
    {
        type            empty;
    }
}

Es(p, T) @ p=22026.5 T=275.968 1.19628e+07
Es(p, T) @ p=101722 T=345.145 1.49636e+07
Es(p, T) @ p=22026.5 T=275.968 1.19628e+07
Es(p, T) @ p=101722 T=345.145 1.49636e+07
Correcting thermo quantities 
Calculating thermo quantities 
Returning temperature from internal energy 
Here 
Internal energy 1.51065e+07
 Temperature = 345.145
Returning temperature from internal energy 
Here 
Internal energy 1.51065e+07
 Temperature = 345.145
Returning temperature from internal energy 
Here 
Internal energy 1.51065e+07
 Temperature = 345.145
Returning temperature from internal energy 
Here 
Internal energy 1.51065e+07
 Temperature = 345.145
Returning temperature from internal energy 
Here 
Internal energy 1.51039e+07
 Temperature = 345.084
Returning temperature from internal energy 
Here 
Internal energy 1.21178e+07
 Temperature = 276.763
Returning temperature from internal energy 
Here 
Internal energy 1.2083e+07
 Temperature = 275.968
Returning temperature from internal energy 
Here 
Internal energy 1.2083e+07
 Temperature = 275.968
Returning temperature from internal energy 
Here 
Internal energy 1.2083e+07
 Temperature = 275.968
Returning temperature from internal energy 
Here 
Internal energy 1.2083e+07
 Temperature = 275.968
Returning temperature from internal energy 
Here 
Internal energy 1.2083e+07
 Temperature = 275.968
Returning temperature from internal energy 
Here 
Internal energy 1.51065e+07
 Temperature = 345.145
reverse lookup in rhoTable_ 
-23.059
celli 0
reverse lookup in rhoTable_ 
-23.059
celli 1
reverse lookup in rhoTable_ 
-23.059
celli 2
reverse lookup in rhoTable_ 
-23.059
celli 3
reverse lookup in rhoTable_ 
-23.0591
celli 4
reverse lookup in rhoTable_ 
5.00383e-06
celli 5
reverse lookup in rhoTable_ 
5.00383e-06
celli 6
reverse lookup in rhoTable_ 
5.00383e-06
celli 7
reverse lookup in rhoTable_ 
5.00383e-06
celli 8
reverse lookup in rhoTable_ 
5.00383e-06
celli 9
reverse lookup in rhoTable_ 
5.00383e-06
reverse lookup in rhoTable_ 
-23.059
ExecutionTime = 0.01 s  ClockTime = 0 s

deltaT = 2.49011e-06
Mean and max Courant Numbers = 0.00123546 0.00123556
Time = 8.93462e-06

diagonal:  Solving for rho, Initial residual = 0, Final residual = 0, No Iterations 0
diagonal:  Solving for rhoUx, Initial residual = 0, Final residual = 0, No Iterations 0
diagonal:  Solving for rhoE, Initial residual = 0, Final residual = 0, No Iterations 0
dimensions      [0 2 -2 0 0 0 0];

internalField   nonuniform List<scalar> 10(1.51065e+07 1.51065e+07 1.51065e+07 1.51065e+07 1.51029e+07 1.21309e+07 1.2083e+07 1.2083e+07 1.2083e+07 1.2083e+07);

boundaryField
{
    sides
    {
        type            gradientEnergy;
        gradient        uniform 0;
        value           nonuniform List<scalar> 2(1.2083e+07 1.51065e+07);
    }
    empty
    {
        type            empty;
    }
}

Es(p, T) @ p=22026.5 T=275.968 1.19628e+07
Es(p, T) @ p=102070 T=345.145 1.49636e+07
Es(p, T) @ p=22026.5 T=275.968 1.19628e+07
Es(p, T) @ p=102070 T=345.145 1.49636e+07
Correcting thermo quantities 
Calculating thermo quantities 
Returning temperature from internal energy 
Here 
Internal energy 1.51065e+07
 Temperature = 345.145
Returning temperature from internal energy 
Here 
Internal energy 1.51065e+07
 Temperature = 345.145
Returning temperature from internal energy 
Here 
Internal energy 1.51065e+07
 Temperature = 345.145
Returning temperature from internal energy 
Here 
Internal energy 1.51065e+07
 Temperature = 345.145
Returning temperature from internal energy 
Here 
Internal energy 1.51029e+07
 Temperature = 345.061
Returning temperature from internal energy 
Here 
Internal energy 1.21309e+07
 Temperature = 277.064
Returning temperature from internal energy 
Here 
Internal energy 1.2083e+07
 Temperature = 275.968
Returning temperature from internal energy 
Here 
Internal energy 1.2083e+07
 Temperature = 275.968
Returning temperature from internal energy 
Here 
Internal energy 1.2083e+07
 Temperature = 275.968
Returning temperature from internal energy 
Here 
Internal energy 1.2083e+07
 Temperature = 275.968
Returning temperature from internal energy 
Here 
Internal energy 1.2083e+07
 Temperature = 275.968
Returning temperature from internal energy 
Here 
Internal energy 1.51065e+07
 Temperature = 345.145
reverse lookup in rhoTable_ 
-23.048
celli 0
reverse lookup in rhoTable_ 
-23.048
celli 1
reverse lookup in rhoTable_ 
-23.048
celli 2
reverse lookup in rhoTable_ 
-23.048
celli 3
reverse lookup in rhoTable_ 
-23.0482
celli 4
reverse lookup in rhoTable_ 
5.00383e-06
celli 5
reverse lookup in rhoTable_ 
5.00383e-06
celli 6
reverse lookup in rhoTable_ 
5.00383e-06
celli 7
reverse lookup in rhoTable_ 
5.00383e-06
celli 8
reverse lookup in rhoTable_ 
5.00383e-06
celli 9
reverse lookup in rhoTable_ 
5.00383e-06
reverse lookup in rhoTable_ 
-23.048
ExecutionTime = 0.01 s  ClockTime = 0 s

deltaT = 2.98514e-06
Mean and max Courant Numbers = 0.00148108 0.00148124
Time = 1.19198e-05

diagonal:  Solving for rho, Initial residual = 0, Final residual = 0, No Iterations 0
diagonal:  Solving for rhoUx, Initial residual = 0, Final residual = 0, No Iterations 0
diagonal:  Solving for rhoE, Initial residual = 0, Final residual = 0, No Iterations 0
dimensions      [0 2 -2 0 0 0 0];

internalField   nonuniform List<scalar> 10(1.51065e+07 1.51065e+07 1.51065e+07 1.51065e+07 1.51016e+07 1.21465e+07 1.2083e+07 1.2083e+07 1.2083e+07 1.2083e+07);

boundaryField
{
    sides
    {
        type            gradientEnergy;
        gradient        uniform 0;
        value           nonuniform List<scalar> 2(1.2083e+07 1.51065e+07);
    }
    empty
    {
        type            empty;
    }
}

Es(p, T) @ p=22026.5 T=275.968 1.19628e+07
Es(p, T) @ p=102419 T=345.145 1.49636e+07
Es(p, T) @ p=22026.5 T=275.968 1.19628e+07
Es(p, T) @ p=102419 T=345.145 1.49636e+07
Correcting thermo quantities 
Calculating thermo quantities 
Returning temperature from internal energy 
Here 
Internal energy 1.51065e+07
 Temperature = 345.145
Returning temperature from internal energy 
Here 
Internal energy 1.51065e+07
 Temperature = 345.145
Returning temperature from internal energy 
Here 
Internal energy 1.51065e+07
 Temperature = 345.145
Returning temperature from internal energy 
Here 
Internal energy 1.51065e+07
 Temperature = 345.145
Returning temperature from internal energy 
Here 
Internal energy 1.51016e+07
 Temperature = 345.033
Returning temperature from internal energy 
Here 
Internal energy 1.21465e+07
 Temperature = 277.421
Returning temperature from internal energy 
Here 
Internal energy 1.2083e+07
 Temperature = 275.968
Returning temperature from internal energy 
Here 
Internal energy 1.2083e+07
 Temperature = 275.968
Returning temperature from internal energy 
Here 
Internal energy 1.2083e+07
 Temperature = 275.968
Returning temperature from internal energy 
Here 
Internal energy 1.2083e+07
 Temperature = 275.968
Returning temperature from internal energy 
Here 
Internal energy 1.2083e+07
 Temperature = 275.968
Returning temperature from internal energy 
Here 
Internal energy 1.51065e+07
 Temperature = 345.145
reverse lookup in rhoTable_ 
-23.037
celli 0
reverse lookup in rhoTable_ 
-23.037
celli 1
reverse lookup in rhoTable_ 
-23.037
celli 2
reverse lookup in rhoTable_ 
-23.037
celli 3
reverse lookup in rhoTable_ 
-23.0373
celli 4
reverse lookup in rhoTable_ 
5.00383e-06
celli 5
reverse lookup in rhoTable_ 
5.00383e-06
celli 6
reverse lookup in rhoTable_ 
5.00383e-06
celli 7
reverse lookup in rhoTable_ 
5.00383e-06
celli 8
reverse lookup in rhoTable_ 
5.00383e-06
celli 9
reverse lookup in rhoTable_ 
5.00383e-06
reverse lookup in rhoTable_ 
-23.037
ExecutionTime = 0.01 s  ClockTime = 0 s

deltaT = 3.58e-06
Mean and max Courant Numbers = 0.00177624 0.0017765
Time = 1.54998e-05

diagonal:  Solving for rho, Initial residual = 0, Final residual = 0, No Iterations 0
diagonal:  Solving for rhoUx, Initial residual = 0, Final residual = 0, No Iterations 0
diagonal:  Solving for rhoE, Initial residual = 0, Final residual = 0, No Iterations 0
dimensions      [0 2 -2 0 0 0 0];

internalField   nonuniform List<scalar> 10(1.51065e+07 1.51065e+07 1.51065e+07 1.51065e+07 1.51002e+07 1.2165e+07 1.2083e+07 1.2083e+07 1.2083e+07 1.2083e+07);

boundaryField
{
    sides
    {
        type            gradientEnergy;
        gradient        uniform 0;
        value           nonuniform List<scalar> 2(1.2083e+07 1.51065e+07);
    }
    empty
    {
        type            empty;
    }
}

Es(p, T) @ p=22026.5 T=275.968 1.19628e+07
Es(p, T) @ p=102770 T=345.145 1.49636e+07
Es(p, T) @ p=22026.5 T=275.968 1.19628e+07
Es(p, T) @ p=102770 T=345.145 1.49636e+07
Correcting thermo quantities 
Calculating thermo quantities 
Returning temperature from internal energy 
Here 
Internal energy 1.51065e+07
 Temperature = 345.145
Returning temperature from internal energy 
Here 
Internal energy 1.51065e+07
 Temperature = 345.145
Returning temperature from internal energy 
Here 
Internal energy 1.51065e+07
 Temperature = 345.145
Returning temperature from internal energy 
Here 
Internal energy 1.51065e+07
 Temperature = 345.145
Returning temperature from internal energy 
Here 
Internal energy 1.51002e+07
 Temperature = 345
Returning temperature from internal energy 
Here 
Internal energy 1.2165e+07
 Temperature = 277.843
Returning temperature from internal energy 
Here 
Internal energy 1.2083e+07
 Temperature = 275.968
Returning temperature from internal energy 
Here 
Internal energy 1.2083e+07
 Temperature = 275.968
Returning temperature from internal energy 
Here 
Internal energy 1.2083e+07
 Temperature = 275.968
Returning temperature from internal energy 
Here 
Internal energy 1.2083e+07
 Temperature = 275.968
Returning temperature from internal energy 
Here 
Internal energy 1.2083e+07
 Temperature = 275.968
Returning temperature from internal energy 
Here 
Internal energy 1.51065e+07
 Temperature = 345.145
reverse lookup in rhoTable_ 
-23.026
celli 0
reverse lookup in rhoTable_ 
-23.026
celli 1
reverse lookup in rhoTable_ 
-23.026
celli 2
reverse lookup in rhoTable_ 
-23.026
celli 3
reverse lookup in rhoTable_ 
-23.0264
celli 4
reverse lookup in rhoTable_ 
5.00383e-06
celli 5
reverse lookup in rhoTable_ 
5.00383e-06
celli 6
reverse lookup in rhoTable_ 
5.00383e-06
celli 7
reverse lookup in rhoTable_ 
5.00383e-06
celli 8
reverse lookup in rhoTable_ 
5.00383e-06
celli 9
reverse lookup in rhoTable_ 
5.00383e-06
reverse lookup in rhoTable_ 
-23.026
ExecutionTime = 0.01 s  ClockTime = 0 s

deltaT = 4.29913e-06
Mean and max Courant Numbers = 0.00213307 0.00213347
Time = 1.97989e-05

diagonal:  Solving for rho, Initial residual = 0, Final residual = 0, No Iterations 0
diagonal:  Solving for rhoUx, Initial residual = 0, Final residual = 0, No Iterations 0
diagonal:  Solving for rhoE, Initial residual = 0, Final residual = 0, No Iterations 0
dimensions      [0 2 -2 0 0 0 0];

internalField   nonuniform List<scalar> 10(1.51065e+07 1.51065e+07 1.51065e+07 1.51065e+07 1.50985e+07 1.21867e+07 1.2083e+07 1.2083e+07 1.2083e+07 1.2083e+07);

boundaryField
{
    sides
    {
        type            gradientEnergy;
        gradient        uniform 0;
        value           nonuniform List<scalar> 2(1.2083e+07 1.51065e+07);
    }
    empty
    {
        type            empty;
    }
}

Es(p, T) @ p=22026.5 T=275.968 1.19628e+07
Es(p, T) @ p=103122 T=345.145 1.49636e+07
Es(p, T) @ p=22026.5 T=275.968 1.19628e+07
Es(p, T) @ p=103122 T=345.145 1.49636e+07
Correcting thermo quantities 
Calculating thermo quantities 
Returning temperature from internal energy 
Here 
Internal energy 1.51065e+07
 Temperature = 345.145
Returning temperature from internal energy 
Here 
Internal energy 1.51065e+07
 Temperature = 345.145
Returning temperature from internal energy 
Here 
Internal energy 1.51065e+07
 Temperature = 345.145
Returning temperature from internal energy 
Here 
Internal energy 1.51065e+07
 Temperature = 345.145
Returning temperature from internal energy 
Here 
Internal energy 1.50985e+07
 Temperature = 344.96
Returning temperature from internal energy 
Here 
Internal energy 1.21867e+07
 Temperature = 278.341
Returning temperature from internal energy 
Here 
Internal energy 1.2083e+07
 Temperature = 275.968
Returning temperature from internal energy 
Here 
Internal energy 1.2083e+07
 Temperature = 275.968
Returning temperature from internal energy 
Here 
Internal energy 1.2083e+07
 Temperature = 275.968
Returning temperature from internal energy 
Here 
Internal energy 1.2083e+07
 Temperature = 275.968
Returning temperature from internal energy 
Here 
Internal energy 1.2083e+07
 Temperature = 275.968
Returning temperature from internal energy 
Here 
Internal energy 1.51065e+07
 Temperature = 345.145
reverse lookup in rhoTable_ 
-23.015
celli 0
reverse lookup in rhoTable_ 
-23.015
celli 1
reverse lookup in rhoTable_ 
-23.015
celli 2
reverse lookup in rhoTable_ 
-23.015
celli 3
reverse lookup in rhoTable_ 
-23.0156
celli 4
reverse lookup in rhoTable_ 
5.00383e-06
celli 5
reverse lookup in rhoTable_ 
5.00383e-06
celli 6
reverse lookup in rhoTable_ 
5.00383e-06
celli 7
reverse lookup in rhoTable_ 
5.00383e-06
celli 8
reverse lookup in rhoTable_ 
5.00383e-06
celli 9
reverse lookup in rhoTable_ 
5.00383e-06
reverse lookup in rhoTable_ 
-23.015
ExecutionTime = 0.01 s  ClockTime = 0 s

deltaT = 5.15895e-06
Mean and max Courant Numbers = 0.00255972 0.00256033
Time = 2.49578e-05

diagonal:  Solving for rho, Initial residual = 0, Final residual = 0, No Iterations 0
diagonal:  Solving for rhoUx, Initial residual = 0, Final residual = 0, No Iterations 0
diagonal:  Solving for rhoE, Initial residual = 0, Final residual = 0, No Iterations 0
dimensions      [0 2 -2 0 0 0 0];

internalField   nonuniform List<scalar> 10(1.51065e+07 1.51065e+07 1.51065e+07 1.51065e+07 1.50964e+07 1.22124e+07 1.2083e+07 1.2083e+07 1.2083e+07 1.2083e+07);

boundaryField
{
    sides
    {
        type            gradientEnergy;
        gradient        uniform 0;
        value           nonuniform List<scalar> 2(1.2083e+07 1.51065e+07);
    }
    empty
    {
        type            empty;
    }
}

Es(p, T) @ p=22026.5 T=275.968 1.19628e+07
Es(p, T) @ p=103474 T=345.145 1.49636e+07
Es(p, T) @ p=22026.5 T=275.968 1.19628e+07
Es(p, T) @ p=103474 T=345.145 1.49636e+07
Correcting thermo quantities 
Calculating thermo quantities 
Returning temperature from internal energy 
Here 
Internal energy 1.51065e+07
 Temperature = 345.145
Returning temperature from internal energy 
Here 
Internal energy 1.51065e+07
 Temperature = 345.145
Returning temperature from internal energy 
Here 
Internal energy 1.51065e+07
 Temperature = 345.145
Returning temperature from internal energy 
Here 
Internal energy 1.51065e+07
 Temperature = 345.145
Returning temperature from internal energy 
Here 
Internal energy 1.50964e+07
 Temperature = 344.913
Returning temperature from internal energy 
Here 
Internal energy 1.22124e+07
 Temperature = 278.927
Returning temperature from internal energy 
Here 
Internal energy 1.2083e+07
 Temperature = 275.969
Returning temperature from internal energy 
Here 
Internal energy 1.2083e+07
 Temperature = 275.968
Returning temperature from internal energy 
Here 
Internal energy 1.2083e+07
 Temperature = 275.968
Returning temperature from internal energy 
Here 
Internal energy 1.2083e+07
 Temperature = 275.968
Returning temperature from internal energy 
Here 
Internal energy 1.2083e+07
 Temperature = 275.968
Returning temperature from internal energy 
Here 
Internal energy 1.51065e+07
 Temperature = 345.145
reverse lookup in rhoTable_ 
-23.004
celli 0
reverse lookup in rhoTable_ 
-23.004
celli 1
reverse lookup in rhoTable_ 
-23.004
celli 2
reverse lookup in rhoTable_ 
-23.004
celli 3
reverse lookup in rhoTable_ 
-23.0048
celli 4
reverse lookup in rhoTable_ 
5.00383e-06
celli 5
reverse lookup in rhoTable_ 
5.00383e-06
celli 6
reverse lookup in rhoTable_ 
5.00383e-06
celli 7
reverse lookup in rhoTable_ 
5.00383e-06
celli 8
reverse lookup in rhoTable_ 
5.00383e-06
celli 9
reverse lookup in rhoTable_ 
5.00383e-06
reverse lookup in rhoTable_ 
-23.004
ExecutionTime = 0.01 s  ClockTime = 0 s

deltaT = 6.17115e-06
Mean and max Courant Numbers = 0.00306199 0.00306291
Time = 3.1129e-05

diagonal:  Solving for rho, Initial residual = 0, Final residual = 0, No Iterations 0
diagonal:  Solving for rhoUx, Initial residual = 0, Final residual = 0, No Iterations 0
diagonal:  Solving for rhoE, Initial residual = 0, Final residual = 0, No Iterations 0
dimensions      [0 2 -2 0 0 0 0];

internalField   nonuniform List<scalar> 10(1.51065e+07 1.51065e+07 1.51065e+07 1.51065e+07 1.50939e+07 1.22422e+07 1.2083e+07 1.2083e+07 1.2083e+07 1.2083e+07);

boundaryField
{
    sides
    {
        type            gradientEnergy;
        gradient        uniform 0;
        value           nonuniform List<scalar> 2(1.2083e+07 1.51065e+07);
    }
    empty
    {
        type            empty;
    }
}

Es(p, T) @ p=22026.5 T=275.968 1.19628e+07
Es(p, T) @ p=103828 T=345.145 1.49636e+07
Es(p, T) @ p=22026.5 T=275.968 1.19628e+07
Es(p, T) @ p=103828 T=345.145 1.49636e+07
Correcting thermo quantities 
Calculating thermo quantities 
Returning temperature from internal energy 
Here 
Internal energy 1.51065e+07
 Temperature = 345.145
Returning temperature from internal energy 
Here 
Internal energy 1.51065e+07
 Temperature = 345.145
Returning temperature from internal energy 
Here 
Internal energy 1.51065e+07
 Temperature = 345.145
Returning temperature from internal energy 
Here 
Internal energy 1.51065e+07
 Temperature = 345.145
Returning temperature from internal energy 
Here 
Internal energy 1.50939e+07
 Temperature = 344.856
Returning temperature from internal energy 
Here 
Internal energy 1.22422e+07
 Temperature = 279.611
Returning temperature from internal energy 
Here 
Internal energy 1.2083e+07
 Temperature = 275.969
Returning temperature from internal energy 
Here 
Internal energy 1.2083e+07
 Temperature = 275.968
Returning temperature from internal energy 
Here 
Internal energy 1.2083e+07
 Temperature = 275.968
Returning temperature from internal energy 
Here 
Internal energy 1.2083e+07
 Temperature = 275.968
Returning temperature from internal energy 
Here 
Internal energy 1.2083e+07
 Temperature = 275.968
Returning temperature from internal energy 
Here 
Internal energy 1.51065e+07
 Temperature = 345.145
reverse lookup in rhoTable_ 
-22.993
celli 0
reverse lookup in rhoTable_ 
-22.993
celli 1
reverse lookup in rhoTable_ 
-22.993
celli 2
reverse lookup in rhoTable_ 
-22.993
celli 3
reverse lookup in rhoTable_ 
-22.994
celli 4
reverse lookup in rhoTable_ 
5.00383e-06
celli 5
reverse lookup in rhoTable_ 
5.00383e-06
celli 6
reverse lookup in rhoTable_ 
5.00383e-06
celli 7
reverse lookup in rhoTable_ 
5.00383e-06
celli 8
reverse lookup in rhoTable_ 
5.00383e-06
celli 9
reverse lookup in rhoTable_ 
5.00383e-06
reverse lookup in rhoTable_ 
-22.993
ExecutionTime = 0.01 s  ClockTime = 0 s

deltaT = 7.39596e-06
Mean and max Courant Numbers = 0.00366979 0.00367116
Time = 3.85249e-05

diagonal:  Solving for rho, Initial residual = 0, Final residual = 0, No Iterations 0
diagonal:  Solving for rhoUx, Initial residual = 0, Final residual = 0, No Iterations 0
diagonal:  Solving for rhoE, Initial residual = 0, Final residual = 0, No Iterations 0
dimensions      [0 2 -2 0 0 0 0];

internalField   nonuniform List<scalar> 10(1.51065e+07 1.51065e+07 1.51065e+07 1.51065e+07 1.5091e+07 1.22771e+07 1.20831e+07 1.2083e+07 1.2083e+07 1.2083e+07);

boundaryField
{
    sides
    {
        type            gradientEnergy;
        gradient        uniform 0;
        value           nonuniform List<scalar> 2(1.2083e+07 1.51065e+07);
    }
    empty
    {
        type            empty;
    }
}

Es(p, T) @ p=22026.5 T=275.968 1.19628e+07
Es(p, T) @ p=104184 T=345.145 1.49636e+07
Es(p, T) @ p=22026.5 T=275.968 1.19628e+07
Es(p, T) @ p=104184 T=345.145 1.49636e+07
Correcting thermo quantities 
Calculating thermo quantities 
Returning temperature from internal energy 
Here 
Internal energy 1.51065e+07
 Temperature = 345.145
Returning temperature from internal energy 
Here 
Internal energy 1.51065e+07
 Temperature = 345.145
Returning temperature from internal energy 
Here 
Internal energy 1.51065e+07
 Temperature = 345.145
Returning temperature from internal energy 
Here 
Internal energy 1.51065e+07
 Temperature = 345.145
Returning temperature from internal energy 
Here 
Internal energy 1.5091e+07
 Temperature = 344.789
Returning temperature from internal energy 
Here 
Internal energy 1.22771e+07
 Temperature = 280.407
Returning temperature from internal energy 
Here 
Internal energy 1.20831e+07
 Temperature = 275.97
Returning temperature from internal energy 
Here 
Internal energy 1.2083e+07
 Temperature = 275.968
Returning temperature from internal energy 
Here 
Internal energy 1.2083e+07
 Temperature = 275.968
Returning temperature from internal energy 
Here 
Internal energy 1.2083e+07
 Temperature = 275.968
Returning temperature from internal energy 
Here 
Internal energy 1.2083e+07
 Temperature = 275.968
Returning temperature from internal energy 
Here 
Internal energy 1.51065e+07
 Temperature = 345.145
reverse lookup in rhoTable_ 
-22.9819
celli 0
reverse lookup in rhoTable_ 
-22.9819
celli 1
reverse lookup in rhoTable_ 
-22.9819
celli 2
reverse lookup in rhoTable_ 
-22.9819
celli 3
reverse lookup in rhoTable_ 
-22.9833
celli 4
reverse lookup in rhoTable_ 
5.00383e-06
celli 5
reverse lookup in rhoTable_ 
5.00383e-06
celli 6
reverse lookup in rhoTable_ 
5.00383e-06
celli 7
reverse lookup in rhoTable_ 
5.00383e-06
celli 8
reverse lookup in rhoTable_ 
5.00383e-06
celli 9
reverse lookup in rhoTable_ 
5.00383e-06
reverse lookup in rhoTable_ 
-22.9819
ExecutionTime = 0.01 s  ClockTime = 0 s

deltaT = 8.90255e-06
Mean and max Courant Numbers = 0.00441744 0.00441949
Time = 4.74275e-05

diagonal:  Solving for rho, Initial residual = 0, Final residual = 0, No Iterations 0
diagonal:  Solving for rhoUx, Initial residual = 0, Final residual = 0, No Iterations 0
diagonal:  Solving for rhoE, Initial residual = 0, Final residual = 0, No Iterations 0
dimensions      [0 2 -2 0 0 0 0];

internalField   nonuniform List<scalar> 10(1.51065e+07 1.51065e+07 1.51065e+07 1.51065e+07 1.50875e+07 1.23176e+07 1.20831e+07 1.2083e+07 1.2083e+07 1.2083e+07);

boundaryField
{
    sides
    {
        type            gradientEnergy;
        gradient        uniform 0;
        value           nonuniform List<scalar> 2(1.2083e+07 1.51065e+07);
    }
    empty
    {
        type            empty;
    }
}

Es(p, T) @ p=22026.5 T=275.968 1.19628e+07
Es(p, T) @ p=104540 T=345.145 1.49636e+07
Es(p, T) @ p=22026.5 T=275.968 1.19628e+07
Es(p, T) @ p=104540 T=345.145 1.49636e+07
Correcting thermo quantities 
Calculating thermo quantities 
Returning temperature from internal energy 
Here 
Internal energy 1.51065e+07
 Temperature = 345.145
Returning temperature from internal energy 
Here 
Internal energy 1.51065e+07
 Temperature = 345.145
Returning temperature from internal energy 
Here 
Internal energy 1.51065e+07
 Temperature = 345.145
Returning temperature from internal energy 
Here 
Internal energy 1.51065e+07
 Temperature = 345.145
Returning temperature from internal energy 
Here 
Internal energy 1.50875e+07
 Temperature = 344.709
Returning temperature from internal energy 
Here 
Internal energy 1.23176e+07
 Temperature = 281.334
Returning temperature from internal energy 
Here 
Internal energy 1.20831e+07
 Temperature = 275.971
Returning temperature from internal energy 
Here 
Internal energy 1.2083e+07
 Temperature = 275.968
Returning temperature from internal energy 
Here 
Internal energy 1.2083e+07
 Temperature = 275.968
Returning temperature from internal energy 
Here 
Internal energy 1.2083e+07
 Temperature = 275.968
Returning temperature from internal energy 
Here 
Internal energy 1.2083e+07
 Temperature = 275.968
Returning temperature from internal energy 
Here 
Internal energy 1.51065e+07
 Temperature = 345.145
reverse lookup in rhoTable_ 
-22.9709
celli 0
reverse lookup in rhoTable_ 
-22.9709
celli 1
reverse lookup in rhoTable_ 
-22.9709
celli 2
reverse lookup in rhoTable_ 
-22.9709
celli 3
reverse lookup in rhoTable_ 
-22.9727
celli 4
reverse lookup in rhoTable_ 
5.00383e-06
celli 5
reverse lookup in rhoTable_ 
5.00383e-06
celli 6
reverse lookup in rhoTable_ 
5.00383e-06
celli 7
reverse lookup in rhoTable_ 
5.00383e-06
celli 8
reverse lookup in rhoTable_ 
5.00383e-06
celli 9
reverse lookup in rhoTable_ 
5.00383e-06
reverse lookup in rhoTable_ 
-22.9709
ExecutionTime = 0.01 s  ClockTime = 0 s

deltaT = 1.07031e-05
Mean and max Courant Numbers = 0.00531101 0.00531403
Time = 5.81306e-05

diagonal:  Solving for rho, Initial residual = 0, Final residual = 0, No Iterations 0
diagonal:  Solving for rhoUx, Initial residual = 0, Final residual = 0, No Iterations 0
diagonal:  Solving for rhoE, Initial residual = 0, Final residual = 0, No Iterations 0
dimensions      [0 2 -2 0 0 0 0];

internalField   nonuniform List<scalar> 10(1.51065e+07 1.51065e+07 1.51065e+07 1.51065e+07 1.50834e+07 1.23643e+07 1.20832e+07 1.2083e+07 1.2083e+07 1.2083e+07);

boundaryField
{
    sides
    {
        type            gradientEnergy;
        gradient        uniform 0;
        value           nonuniform List<scalar> 2(1.2083e+07 1.51065e+07);
    }
    empty
    {
        type            empty;
    }
}

Es(p, T) @ p=22026.5 T=275.968 1.19628e+07
Es(p, T) @ p=104898 T=345.145 1.49636e+07
Es(p, T) @ p=22026.5 T=275.968 1.19628e+07
Es(p, T) @ p=104898 T=345.145 1.49636e+07
Correcting thermo quantities 
Calculating thermo quantities 
Returning temperature from internal energy 
Here 
Internal energy 1.51065e+07
 Temperature = 345.145
Returning temperature from internal energy 
Here 
Internal energy 1.51065e+07
 Temperature = 345.145
Returning temperature from internal energy 
Here 
Internal energy 1.51065e+07
 Temperature = 345.145
Returning temperature from internal energy 
Here 
Internal energy 1.51065e+07
 Temperature = 345.145
Returning temperature from internal energy 
Here 
Internal energy 1.50834e+07
 Temperature = 344.615
Returning temperature from internal energy 
Here 
Internal energy 1.23643e+07
 Temperature = 282.403
Returning temperature from internal energy 
Here 
Internal energy 1.20832e+07
 Temperature = 275.973
Returning temperature from internal energy 
Here 
Internal energy 1.2083e+07
 Temperature = 275.968
Returning temperature from internal energy 
Here 
Internal energy 1.2083e+07
 Temperature = 275.968
Returning temperature from internal energy 
Here 
Internal energy 1.2083e+07
 Temperature = 275.968
Returning temperature from internal energy 
Here 
Internal energy 1.2083e+07
 Temperature = 275.968
Returning temperature from internal energy 
Here 
Internal energy 1.51065e+07
 Temperature = 345.145
reverse lookup in rhoTable_ 
-22.9599
celli 0
reverse lookup in rhoTable_ 
-22.9599
celli 1
reverse lookup in rhoTable_ 
-22.9599
celli 2
reverse lookup in rhoTable_ 
-22.9599
celli 3
reverse lookup in rhoTable_ 
-22.9622
celli 4
reverse lookup in rhoTable_ 
5.00383e-06
celli 5
reverse lookup in rhoTable_ 
5.00383e-06
celli 6
reverse lookup in rhoTable_ 
5.00383e-06
celli 7
reverse lookup in rhoTable_ 
5.00383e-06
celli 8
reverse lookup in rhoTable_ 
5.00383e-06
celli 9
reverse lookup in rhoTable_ 
5.00383e-06
reverse lookup in rhoTable_ 
-22.9599
ExecutionTime = 0.01 s  ClockTime = 0 s

deltaT = 1.29023e-05
Mean and max Courant Numbers = 0.00640253 0.00640697
Time = 7.10329e-05

diagonal:  Solving for rho, Initial residual = 0, Final residual = 0, No Iterations 0
diagonal:  Solving for rhoUx, Initial residual = 0, Final residual = 0, No Iterations 0
diagonal:  Solving for rhoE, Initial residual = 0, Final residual = 0, No Iterations 0
dimensions      [0 2 -2 0 0 0 0];

internalField   nonuniform List<scalar> 10(1.51065e+07 1.51065e+07 1.51065e+07 1.51065e+07 1.50784e+07 1.2418e+07 1.20834e+07 1.2083e+07 1.2083e+07 1.2083e+07);

boundaryField
{
    sides
    {
        type            gradientEnergy;
        gradient        uniform 0;
        value           nonuniform List<scalar> 2(1.2083e+07 1.51065e+07);
    }
    empty
    {
        type            empty;
    }
}

Es(p, T) @ p=22026.5 T=275.968 1.19628e+07
Es(p, T) @ p=105257 T=345.145 1.49636e+07
Es(p, T) @ p=22026.5 T=275.968 1.19628e+07
Es(p, T) @ p=105257 T=345.145 1.49636e+07
Correcting thermo quantities 
Calculating thermo quantities 
Returning temperature from internal energy 
Here 
Internal energy 1.51065e+07
 Temperature = 345.145
Returning temperature from internal energy 
Here 
Internal energy 1.51065e+07
 Temperature = 345.145
Returning temperature from internal energy 
Here 
Internal energy 1.51065e+07
 Temperature = 345.145
Returning temperature from internal energy 
Here 
Internal energy 1.51065e+07
 Temperature = 345.145
Returning temperature from internal energy 
Here 
Internal energy 1.50784e+07
 Temperature = 344.502
Returning temperature from internal energy 
Here 
Internal energy 1.2418e+07
 Temperature = 283.632
Returning temperature from internal energy 
Here 
Internal energy 1.20834e+07
 Temperature = 275.977
Returning temperature from internal energy 
Here 
Internal energy 1.2083e+07
 Temperature = 275.968
Returning temperature from internal energy 
Here 
Internal energy 1.2083e+07
 Temperature = 275.968
Returning temperature from internal energy 
Here 
Internal energy 1.2083e+07
 Temperature = 275.968
Returning temperature from internal energy 
Here 
Internal energy 1.2083e+07
 Temperature = 275.968
Returning temperature from internal energy 
Here 
Internal energy 1.51065e+07
 Temperature = 345.145
reverse lookup in rhoTable_ 
-22.9489
celli 0
reverse lookup in rhoTable_ 
-22.9489
celli 1
reverse lookup in rhoTable_ 
-22.9489
celli 2
reverse lookup in rhoTable_ 
-22.9489
celli 3
reverse lookup in rhoTable_ 
-22.9517
celli 4
reverse lookup in rhoTable_ 
5.00383e-06
celli 5
reverse lookup in rhoTable_ 
5.00383e-06
celli 6
reverse lookup in rhoTable_ 
5.00383e-06
celli 7
reverse lookup in rhoTable_ 
5.00383e-06
celli 8
reverse lookup in rhoTable_ 
5.00383e-06
celli 9
reverse lookup in rhoTable_ 
5.00383e-06
reverse lookup in rhoTable_ 
-22.9489
ExecutionTime = 0.01 s  ClockTime = 0 s

deltaT = 1.54828e-05
Mean and max Courant Numbers = 0.00768335 0.00768982
Time = 8.65157e-05

diagonal:  Solving for rho, Initial residual = 0, Final residual = 0, No Iterations 0
diagonal:  Solving for rhoUx, Initial residual = 0, Final residual = 0, No Iterations 0
diagonal:  Solving for rhoE, Initial residual = 0, Final residual = 0, No Iterations 0
dimensions      [0 2 -2 0 0 0 0];

internalField   nonuniform List<scalar> 10(1.51065e+07 1.51065e+07 1.51065e+07 1.51065e+07 1.50726e+07 1.24789e+07 1.20837e+07 1.2083e+07 1.2083e+07 1.2083e+07);

boundaryField
{
    sides
    {
        type            gradientEnergy;
        gradient        uniform 0;
        value           nonuniform List<scalar> 2(1.2083e+07 1.51065e+07);
    }
    empty
    {
        type            empty;
    }
}

Es(p, T) @ p=22026.5 T=275.968 1.19628e+07
Es(p, T) @ p=105617 T=345.145 1.49636e+07
Es(p, T) @ p=22026.5 T=275.968 1.19628e+07
Es(p, T) @ p=105617 T=345.145 1.49636e+07
Correcting thermo quantities 
Calculating thermo quantities 
Returning temperature from internal energy 
Here 
Internal energy 1.51065e+07
 Temperature = 345.145
Returning temperature from internal energy 
Here 
Internal energy 1.51065e+07
 Temperature = 345.145
Returning temperature from internal energy 
Here 
Internal energy 1.51065e+07
 Temperature = 345.145
Returning temperature from internal energy 
Here 
Internal energy 1.51065e+07
 Temperature = 345.145
Returning temperature from internal energy 
Here 
Internal energy 1.50726e+07
 Temperature = 344.369
Returning temperature from internal energy 
Here 
Internal energy 1.24789e+07
 Temperature = 285.024
Returning temperature from internal energy 
Here 
Internal energy 1.20837e+07
 Temperature = 275.983
Returning temperature from internal energy 
Here 
Internal energy 1.2083e+07
 Temperature = 275.968
Returning temperature from internal energy 
Here 
Internal energy 1.2083e+07
 Temperature = 275.968
Returning temperature from internal energy 
Here 
Internal energy 1.2083e+07
 Temperature = 275.968
Returning temperature from internal energy 
Here 
Internal energy 1.2083e+07
 Temperature = 275.968
Returning temperature from internal energy 
Here 
Internal energy 1.51065e+07
 Temperature = 345.145
reverse lookup in rhoTable_ 
-22.9379
celli 0
reverse lookup in rhoTable_ 
-22.9379
celli 1
reverse lookup in rhoTable_ 
-22.9379
celli 2
reverse lookup in rhoTable_ 
-22.9379
celli 3
reverse lookup in rhoTable_ 
-22.9414
celli 4
reverse lookup in rhoTable_ 
5.00383e-06
celli 5
reverse lookup in rhoTable_ 
5.00383e-06
celli 6
reverse lookup in rhoTable_ 
5.00383e-06
celli 7
reverse lookup in rhoTable_ 
5.00383e-06
celli 8
reverse lookup in rhoTable_ 
5.00383e-06
celli 9
reverse lookup in rhoTable_ 
5.00383e-06
reverse lookup in rhoTable_ 
-22.9379
ExecutionTime = 0.01 s  ClockTime = 0 s

deltaT = 1.86425e-05
Mean and max Courant Numbers = 0.00925182 0.00926124
Time = 0.000105158

diagonal:  Solving for rho, Initial residual = 0, Final residual = 0, No Iterations 0
diagonal:  Solving for rhoUx, Initial residual = 0, Final residual = 0, No Iterations 0
diagonal:  Solving for rhoE, Initial residual = 0, Final residual = 0, No Iterations 0
dimensions      [0 2 -2 0 0 0 0];

internalField   nonuniform List<scalar> 10(1.51065e+07 1.51065e+07 1.51065e+07 1.51065e+07 1.50658e+07 1.25474e+07 1.20842e+07 1.2083e+07 1.2083e+07 1.2083e+07);

boundaryField
{
    sides
    {
        type            gradientEnergy;
        gradient        uniform 0;
        value           nonuniform List<scalar> 2(1.2083e+07 1.51065e+07);
    }
    empty
    {
        type            empty;
    }
}

Es(p, T) @ p=22026.5 T=275.968 1.19628e+07
Es(p, T) @ p=105978 T=345.145 1.49636e+07
Es(p, T) @ p=22026.5 T=275.968 1.19628e+07
Es(p, T) @ p=105978 T=345.145 1.49636e+07
Correcting thermo quantities 
Calculating thermo quantities 
Returning temperature from internal energy 
Here 
Internal energy 1.51065e+07
 Temperature = 345.145
Returning temperature from internal energy 
Here 
Internal energy 1.51065e+07
 Temperature = 345.145
Returning temperature from internal energy 
Here 
Internal energy 1.51065e+07
 Temperature = 345.145
Returning temperature from internal energy 
Here 
Internal energy 1.51065e+07
 Temperature = 345.145
Returning temperature from internal energy 
Here 
Internal energy 1.50658e+07
 Temperature = 344.213
Returning temperature from internal energy 
Here 
Internal energy 1.25474e+07
 Temperature = 286.592
Returning temperature from internal energy 
Here 
Internal energy 1.20842e+07
 Temperature = 275.994
Returning temperature from internal energy 
Here 
Internal energy 1.2083e+07
 Temperature = 275.968
Returning temperature from internal energy 
Here 
Internal energy 1.2083e+07
 Temperature = 275.968
Returning temperature from internal energy 
Here 
Internal energy 1.2083e+07
 Temperature = 275.968
Returning temperature from internal energy 
Here 
Internal energy 1.2083e+07
 Temperature = 275.968
Returning temperature from internal energy 
Here 
Internal energy 1.51065e+07
 Temperature = 345.145
reverse lookup in rhoTable_ 
-22.9269
celli 0
reverse lookup in rhoTable_ 
-22.9269
celli 1
reverse lookup in rhoTable_ 
-22.9269
celli 2
reverse lookup in rhoTable_ 
-22.9269
celli 3
reverse lookup in rhoTable_ 
-22.9312
celli 4
reverse lookup in rhoTable_ 
5.00383e-06
celli 5
reverse lookup in rhoTable_ 
5.00383e-06
celli 6
reverse lookup in rhoTable_ 
5.00383e-06
celli 7
reverse lookup in rhoTable_ 
5.00383e-06
celli 8
reverse lookup in rhoTable_ 
5.00383e-06
celli 9
reverse lookup in rhoTable_ 
5.00383e-06
reverse lookup in rhoTable_ 
-22.9269
ExecutionTime = 0.01 s  ClockTime = 0 s

deltaT = 2.2371e-05
Mean and max Courant Numbers = 0.0111028 0.0111164
Time = 0.000127529

diagonal:  Solving for rho, Initial residual = 0, Final residual = 0, No Iterations 0
diagonal:  Solving for rhoUx, Initial residual = 0, Final residual = 0, No Iterations 0
diagonal:  Solving for rhoE, Initial residual = 0, Final residual = 0, No Iterations 0
dimensions      [0 2 -2 0 0 0 0];

internalField   nonuniform List<scalar> 10(1.51065e+07 1.51065e+07 1.51065e+07 1.51065e+07 1.50578e+07 1.26234e+07 1.20849e+07 1.2083e+07 1.2083e+07 1.2083e+07);

boundaryField
{
    sides
    {
        type            gradientEnergy;
        gradient        uniform 0;
        value           nonuniform List<scalar> 2(1.2083e+07 1.51065e+07);
    }
    empty
    {
        type            empty;
    }
}

Es(p, T) @ p=22026.5 T=275.968 1.19628e+07
Es(p, T) @ p=106341 T=345.145 1.49636e+07
Es(p, T) @ p=22026.5 T=275.968 1.19628e+07
Es(p, T) @ p=106341 T=345.145 1.49636e+07
Correcting thermo quantities 
Calculating thermo quantities 
Returning temperature from internal energy 
Here 
Internal energy 1.51065e+07
 Temperature = 345.145
Returning temperature from internal energy 
Here 
Internal energy 1.51065e+07
 Temperature = 345.145
Returning temperature from internal energy 
Here 
Internal energy 1.51065e+07
 Temperature = 345.145
Returning temperature from internal energy 
Here 
Internal energy 1.51065e+07
 Temperature = 345.144
Returning temperature from internal energy 
Here 
Internal energy 1.50578e+07
 Temperature = 344.031
Returning temperature from internal energy 
Here 
Internal energy 1.26234e+07
 Temperature = 288.331
Returning temperature from internal energy 
Here 
Internal energy 1.20849e+07
 Temperature = 276.013
Returning temperature from internal energy 
Here 
Internal energy 1.2083e+07
 Temperature = 275.968
Returning temperature from internal energy 
Here 
Internal energy 1.2083e+07
 Temperature = 275.968
Returning temperature from internal energy 
Here 
Internal energy 1.2083e+07
 Temperature = 275.968
Returning temperature from internal energy 
Here 
Internal energy 1.2083e+07
 Temperature = 275.968
Returning temperature from internal energy 
Here 
Internal energy 1.51065e+07
 Temperature = 345.145
reverse lookup in rhoTable_ 
-22.9159
celli 0
reverse lookup in rhoTable_ 
-22.9159
celli 1
reverse lookup in rhoTable_ 
-22.9159
celli 2
reverse lookup in rhoTable_ 
-22.9159
celli 3
reverse lookup in rhoTable_ 
-22.9212
celli 4
reverse lookup in rhoTable_ 
5.00383e-06
celli 5
reverse lookup in rhoTable_ 
5.00383e-06
celli 6
reverse lookup in rhoTable_ 
5.00383e-06
celli 7
reverse lookup in rhoTable_ 
5.00383e-06
celli 8
reverse lookup in rhoTable_ 
5.00383e-06
celli 9
reverse lookup in rhoTable_ 
5.00383e-06
reverse lookup in rhoTable_ 
-22.9159
ExecutionTime = 0.01 s  ClockTime = 0 s

deltaT = 2.64385e-05
Mean and max Courant Numbers = 0.0131224 0.0131417
Time = 0.000153968

diagonal:  Solving for rho, Initial residual = 0, Final residual = 0, No Iterations 0
diagonal:  Solving for rhoUx, Initial residual = 0, Final residual = 0, No Iterations 0
diagonal:  Solving for rhoE, Initial residual = 0, Final residual = 0, No Iterations 0
dimensions      [0 2 -2 0 0 0 0];

internalField   nonuniform List<scalar> 10(1.51065e+07 1.51065e+07 1.51065e+07 1.51065e+07 1.50487e+07 1.27054e+07 1.20862e+07 1.2083e+07 1.2083e+07 1.2083e+07);

boundaryField
{
    sides
    {
        type            gradientEnergy;
        gradient        uniform 0;
        value           nonuniform List<scalar> 2(1.2083e+07 1.51065e+07);
    }
    empty
    {
        type            empty;
    }
}

Es(p, T) @ p=22026.5 T=275.968 1.19628e+07
Es(p, T) @ p=106705 T=345.145 1.49636e+07
Es(p, T) @ p=22026.5 T=275.968 1.19628e+07
Es(p, T) @ p=106705 T=345.145 1.49636e+07
Correcting thermo quantities 
Calculating thermo quantities 
Returning temperature from internal energy 
Here 
Internal energy 1.51065e+07
 Temperature = 345.145
Returning temperature from internal energy 
Here 
Internal energy 1.51065e+07
 Temperature = 345.145
Returning temperature from internal energy 
Here 
Internal energy 1.51065e+07
 Temperature = 345.145
Returning temperature from internal energy 
Here 
Internal energy 1.51065e+07
 Temperature = 345.144
Returning temperature from internal energy 
Here 
Internal energy 1.50487e+07
 Temperature = 343.822
Returning temperature from internal energy 
Here 
Internal energy 1.27054e+07
 Temperature = 290.206
Returning temperature from internal energy 
Here 
Internal energy 1.20862e+07
 Temperature = 276.042
Returning temperature from internal energy 
Here 
Internal energy 1.2083e+07
 Temperature = 275.968
Returning temperature from internal energy 
Here 
Internal energy 1.2083e+07
 Temperature = 275.968
Returning temperature from internal energy 
Here 
Internal energy 1.2083e+07
 Temperature = 275.968
Returning temperature from internal energy 
Here 
Internal energy 1.2083e+07
 Temperature = 275.968
Returning temperature from internal energy 
Here 
Internal energy 1.51065e+07
 Temperature = 345.145
reverse lookup in rhoTable_ 
-22.9049
celli 0
reverse lookup in rhoTable_ 
-22.9049
celli 1
reverse lookup in rhoTable_ 
-22.9049
celli 2
reverse lookup in rhoTable_ 
-22.9049
celli 3
reverse lookup in rhoTable_ 
-22.9114
celli 4
reverse lookup in rhoTable_ 
5.00383e-06
celli 5
reverse lookup in rhoTable_ 
5.00383e-06
celli 6
reverse lookup in rhoTable_ 
5.00383e-06
celli 7
reverse lookup in rhoTable_ 
5.00383e-06
celli 8
reverse lookup in rhoTable_ 
5.00383e-06
celli 9
reverse lookup in rhoTable_ 
5.00383e-06
reverse lookup in rhoTable_ 
-22.9049
ExecutionTime = 0.01 s  ClockTime = 0 s

deltaT = 3.13345e-05
Mean and max Courant Numbers = 0.0155537 0.0155808
Time = 0.000185302

diagonal:  Solving for rho, Initial residual = 0, Final residual = 0, No Iterations 0
diagonal:  Solving for rhoUx, Initial residual = 0, Final residual = 0, No Iterations 0
diagonal:  Solving for rhoE, Initial residual = 0, Final residual = 0, No Iterations 0
dimensions      [0 2 -2 0 0 0 0];

internalField   nonuniform List<scalar> 10(1.51065e+07 1.51065e+07 1.51065e+07 1.51065e+07 1.50384e+07 1.27928e+07 1.20882e+07 1.2083e+07 1.2083e+07 1.2083e+07);

boundaryField
{
    sides
    {
        type            gradientEnergy;
        gradient        uniform 0;
        value           nonuniform List<scalar> 2(1.2083e+07 1.51065e+07);
    }
    empty
    {
        type            empty;
    }
}

Es(p, T) @ p=22026.5 T=275.968 1.19628e+07
Es(p, T) @ p=107070 T=345.145 1.49636e+07
Es(p, T) @ p=22026.5 T=275.968 1.19628e+07
Es(p, T) @ p=107070 T=345.145 1.49636e+07
Correcting thermo quantities 
Calculating thermo quantities 
Returning temperature from internal energy 
Here 
Internal energy 1.51065e+07
 Temperature = 345.145
Returning temperature from internal energy 
Here 
Internal energy 1.51065e+07
 Temperature = 345.145
Returning temperature from internal energy 
Here 
Internal energy 1.51065e+07
 Temperature = 345.145
Returning temperature from internal energy 
Here 
Internal energy 1.51065e+07
 Temperature = 345.144
Returning temperature from internal energy 
Here 
Internal energy 1.50384e+07
 Temperature = 343.585
Returning temperature from internal energy 
Here 
Internal energy 1.27928e+07
 Temperature = 292.206
Returning temperature from internal energy 
Here 
Internal energy 1.20882e+07
 Temperature = 276.087
Returning temperature from internal energy 
Here 
Internal energy 1.2083e+07
 Temperature = 275.968
Returning temperature from internal energy 
Here 
Internal energy 1.2083e+07
 Temperature = 275.968
Returning temperature from internal energy 
Here 
Internal energy 1.2083e+07
 Temperature = 275.968
Returning temperature from internal energy 
Here 
Internal energy 1.2083e+07
 Temperature = 275.968
Returning temperature from internal energy 
Here 
Internal energy 1.51065e+07
 Temperature = 345.145
reverse lookup in rhoTable_ 
-22.8939
celli 0
reverse lookup in rhoTable_ 
-22.8939
celli 1
reverse lookup in rhoTable_ 
-22.8939
celli 2
reverse lookup in rhoTable_ 
-22.8939
celli 3
reverse lookup in rhoTable_ 
-22.9018
celli 4
reverse lookup in rhoTable_ 
5.00383e-06
celli 5
reverse lookup in rhoTable_ 
5.00383e-06
celli 6
reverse lookup in rhoTable_ 
5.00383e-06
celli 7
reverse lookup in rhoTable_ 
5.00383e-06
celli 8
reverse lookup in rhoTable_ 
5.00383e-06
celli 9
reverse lookup in rhoTable_ 
5.00383e-06
reverse lookup in rhoTable_ 
-22.8939
ExecutionTime = 0.01 s  ClockTime = 0 s

deltaT = 3.70317e-05
Mean and max Courant Numbers = 0.0183833 0.0184213
Time = 0.000222334

diagonal:  Solving for rho, Initial residual = 0, Final residual = 0, No Iterations 0
diagonal:  Solving for rhoUx, Initial residual = 0, Final residual = 0, No Iterations 0
diagonal:  Solving for rhoE, Initial residual = 0, Final residual = 0, No Iterations 0
dimensions      [0 2 -2 0 0 0 0];

internalField   nonuniform List<scalar> 10(1.51065e+07 1.51065e+07 1.51065e+07 1.51064e+07 1.50267e+07 1.28844e+07 1.20913e+07 1.2083e+07 1.2083e+07 1.2083e+07);

boundaryField
{
    sides
    {
        type            gradientEnergy;
        gradient        uniform 0;
        value           nonuniform List<scalar> 2(1.2083e+07 1.51065e+07);
    }
    empty
    {
        type            empty;
    }
}

Es(p, T) @ p=22026.5 T=275.968 1.19628e+07
Es(p, T) @ p=107437 T=345.145 1.49636e+07
Es(p, T) @ p=22026.5 T=275.968 1.19628e+07
Es(p, T) @ p=107437 T=345.145 1.49636e+07
Correcting thermo quantities 
Calculating thermo quantities 
Returning temperature from internal energy 
Here 
Internal energy 1.51065e+07
 Temperature = 345.145
Returning temperature from internal energy 
Here 
Internal energy 1.51065e+07
 Temperature = 345.145
Returning temperature from internal energy 
Here 
Internal energy 1.51065e+07
 Temperature = 345.145
Returning temperature from internal energy 
Here 
Internal energy 1.51064e+07
 Temperature = 345.143
Returning temperature from internal energy 
Here 
Internal energy 1.50267e+07
 Temperature = 343.318
Returning temperature from internal energy 
Here 
Internal energy 1.28844e+07
 Temperature = 294.301
Returning temperature from internal energy 
Here 
Internal energy 1.20913e+07
 Temperature = 276.157
Returning temperature from internal energy 
Here 
Internal energy 1.2083e+07
 Temperature = 275.968
Returning temperature from internal energy 
Here 
Internal energy 1.2083e+07
 Temperature = 275.968
Returning temperature from internal energy 
Here 
Internal energy 1.2083e+07
 Temperature = 275.968
Returning temperature from internal energy 
Here 
Internal energy 1.2083e+07
 Temperature = 275.968
Returning temperature from internal energy 
Here 
Internal energy 1.51065e+07
 Temperature = 345.145
reverse lookup in rhoTable_ 
-22.8829
celli 0
reverse lookup in rhoTable_ 
-22.8829
celli 1
reverse lookup in rhoTable_ 
-22.8829
celli 2
reverse lookup in rhoTable_ 
-22.8829
celli 3
reverse lookup in rhoTable_ 
-22.8924
celli 4
reverse lookup in rhoTable_ 
5.00383e-06
celli 5
reverse lookup in rhoTable_ 
5.00383e-06
celli 6
reverse lookup in rhoTable_ 
5.00383e-06
celli 7
reverse lookup in rhoTable_ 
5.00383e-06
celli 8
reverse lookup in rhoTable_ 
5.00383e-06
celli 9
reverse lookup in rhoTable_ 
5.00383e-06
reverse lookup in rhoTable_ 
-22.8829
ExecutionTime = 0.01 s  ClockTime = 0 s

deltaT = 4.57451e-05
Mean and max Courant Numbers = 0.0227111 0.0227663
Time = 0.000268079

diagonal:  Solving for rho, Initial residual = 0, Final residual = 0, No Iterations 0
diagonal:  Solving for rhoUx, Initial residual = 0, Final residual = 0, No Iterations 0
diagonal:  Solving for rhoE, Initial residual = 0, Final residual = 0, No Iterations 0
dimensions      [0 2 -2 0 0 0 0];

internalField   nonuniform List<scalar> 10(1.51065e+07 1.51065e+07 1.51065e+07 1.51064e+07 1.50131e+07 1.2983e+07 1.20961e+07 1.2083e+07 1.2083e+07 1.2083e+07);

boundaryField
{
    sides
    {
        type            gradientEnergy;
        gradient        uniform 0;
        value           nonuniform List<scalar> 2(1.2083e+07 1.51065e+07);
    }
    empty
    {
        type            empty;
    }
}

Es(p, T) @ p=22026.5 T=275.968 1.19628e+07
Es(p, T) @ p=107804 T=345.145 1.49636e+07
Es(p, T) @ p=22026.5 T=275.968 1.19628e+07
Es(p, T) @ p=107804 T=345.145 1.49636e+07
Correcting thermo quantities 
Calculating thermo quantities 
Returning temperature from internal energy 
Here 
Internal energy 1.51065e+07
 Temperature = 345.145
Returning temperature from internal energy 
Here 
Internal energy 1.51065e+07
 Temperature = 345.145
Returning temperature from internal energy 
Here 
Internal energy 1.51065e+07
 Temperature = 345.145
Returning temperature from internal energy 
Here 
Internal energy 1.51064e+07
 Temperature = 345.141
Returning temperature from internal energy 
Here 
Internal energy 1.50131e+07
 Temperature = 343.007
Returning temperature from internal energy 
Here 
Internal energy 1.2983e+07
 Temperature = 296.557
Returning temperature from internal energy 
Here 
Internal energy 1.20961e+07
 Temperature = 276.267
Returning temperature from internal energy 
Here 
Internal energy 1.2083e+07
 Temperature = 275.968
Returning temperature from internal energy 
Here 
Internal energy 1.2083e+07
 Temperature = 275.968
Returning temperature from internal energy 
Here 
Internal energy 1.2083e+07
 Temperature = 275.968
Returning temperature from internal energy 
Here 
Internal energy 1.2083e+07
 Temperature = 275.968
Returning temperature from internal energy 
Here 
Internal energy 1.51065e+07
 Temperature = 345.145
reverse lookup in rhoTable_ 
-22.8719
celli 0
reverse lookup in rhoTable_ 
-22.8719
celli 1
reverse lookup in rhoTable_ 
-22.8719
celli 2
reverse lookup in rhoTable_ 
-22.8719
celli 3
reverse lookup in rhoTable_ 
-22.8833
celli 4
reverse lookup in rhoTable_ 
5.00383e-06
celli 5
reverse lookup in rhoTable_ 
5.00383e-06
celli 6
reverse lookup in rhoTable_ 
5.00383e-06
celli 7
reverse lookup in rhoTable_ 
5.00383e-06
celli 8
reverse lookup in rhoTable_ 
5.00383e-06
celli 9
reverse lookup in rhoTable_ 
5.00383e-06
reverse lookup in rhoTable_ 
-22.8719
ExecutionTime = 0.01 s  ClockTime = 0 s

deltaT = 5.63016e-05
Mean and max Courant Numbers = 0.0279555 0.0280355
Time = 0.000324381

diagonal:  Solving for rho, Initial residual = 0, Final residual = 0, No Iterations 0
diagonal:  Solving for rhoUx, Initial residual = 0, Final residual = 0, No Iterations 0
diagonal:  Solving for rhoE, Initial residual = 0, Final residual = 0, No Iterations 0
dimensions      [0 2 -2 0 0 0 0];

internalField   nonuniform List<scalar> 10(1.51065e+07 1.51065e+07 1.51065e+07 1.51063e+07 1.49975e+07 1.30862e+07 1.21035e+07 1.2083e+07 1.2083e+07 1.2083e+07);

boundaryField
{
    sides
    {
        type            gradientEnergy;
        gradient        uniform 0;
        value           nonuniform List<scalar> 2(1.2083e+07 1.51065e+07);
    }
    empty
    {
        type            empty;
    }
}

Es(p, T) @ p=22026.5 T=275.968 1.19628e+07
Es(p, T) @ p=108173 T=345.145 1.49636e+07
Es(p, T) @ p=22026.5 T=275.968 1.19628e+07
Es(p, T) @ p=108173 T=345.145 1.49636e+07
Correcting thermo quantities 
Calculating thermo quantities 
Returning temperature from internal energy 
Here 
Internal energy 1.51065e+07
 Temperature = 345.145
Returning temperature from internal energy 
Here 
Internal energy 1.51065e+07
 Temperature = 345.145
Returning temperature from internal energy 
Here 
Internal energy 1.51065e+07
 Temperature = 345.145
Returning temperature from internal energy 
Here 
Internal energy 1.51063e+07
 Temperature = 345.139
Returning temperature from internal energy 
Here 
Internal energy 1.49975e+07
 Temperature = 342.65
Returning temperature from internal energy 
Here 
Internal energy 1.30862e+07
 Temperature = 298.917
Returning temperature from internal energy 
Here 
Internal energy 1.21035e+07
 Temperature = 276.438
Returning temperature from internal energy 
Here 
Internal energy 1.2083e+07
 Temperature = 275.968
Returning temperature from internal energy 
Here 
Internal energy 1.2083e+07
 Temperature = 275.968
Returning temperature from internal energy 
Here 
Internal energy 1.2083e+07
 Temperature = 275.968
Returning temperature from internal energy 
Here 
Internal energy 1.2083e+07
 Temperature = 275.968
Returning temperature from internal energy 
Here 
Internal energy 1.51065e+07
 Temperature = 345.145
reverse lookup in rhoTable_ 
-22.8609
celli 0
reverse lookup in rhoTable_ 
-22.8609
celli 1
reverse lookup in rhoTable_ 
-22.8609
celli 2
reverse lookup in rhoTable_ 
-22.8609
celli 3
reverse lookup in rhoTable_ 
-22.8745
celli 4
reverse lookup in rhoTable_ 
5.00383e-06
celli 5
reverse lookup in rhoTable_ 
5.00383e-06
celli 6
reverse lookup in rhoTable_ 
5.00383e-06
celli 7
reverse lookup in rhoTable_ 
5.00383e-06
celli 8
reverse lookup in rhoTable_ 
5.00383e-06
celli 9
reverse lookup in rhoTable_ 
5.00383e-06
reverse lookup in rhoTable_ 
-22.8609
ExecutionTime = 0.02 s  ClockTime = 0 s

deltaT = 6.75619e-05
Mean and max Courant Numbers = 0.0335514 0.0336643
Time = 0.000391943

diagonal:  Solving for rho, Initial residual = 0, Final residual = 0, No Iterations 0
diagonal:  Solving for rhoUx, Initial residual = 0, Final residual = 0, No Iterations 0
diagonal:  Solving for rhoE, Initial residual = 0, Final residual = 0, No Iterations 0
dimensions      [0 2 -2 0 0 0 0];

internalField   nonuniform List<scalar> 10(1.51065e+07 1.51065e+07 1.51065e+07 1.51061e+07 1.49803e+07 1.31888e+07 1.21146e+07 1.2083e+07 1.2083e+07 1.2083e+07);

boundaryField
{
    sides
    {
        type            gradientEnergy;
        gradient        uniform 0;
        value           nonuniform List<scalar> 2(1.2083e+07 1.51065e+07);
    }
    empty
    {
        type            empty;
    }
}

Es(p, T) @ p=22026.5 T=275.968 1.19628e+07
Es(p, T) @ p=108543 T=345.145 1.49636e+07
Es(p, T) @ p=22026.5 T=275.968 1.19628e+07
Es(p, T) @ p=108543 T=345.145 1.49636e+07
Correcting thermo quantities 
Calculating thermo quantities 
Returning temperature from internal energy 
Here 
Internal energy 1.51065e+07
 Temperature = 345.145
Returning temperature from internal energy 
Here 
Internal energy 1.51065e+07
 Temperature = 345.145
Returning temperature from internal energy 
Here 
Internal energy 1.51065e+07
 Temperature = 345.145
Returning temperature from internal energy 
Here 
Internal energy 1.51061e+07
 Temperature = 345.135
Returning temperature from internal energy 
Here 
Internal energy 1.49803e+07
 Temperature = 342.257
Returning temperature from internal energy 
Here 
Internal energy 1.31888e+07
 Temperature = 301.265
Returning temperature from internal energy 
Here 
Internal energy 1.21146e+07
 Temperature = 276.69
Returning temperature from internal energy 
Here 
Internal energy 1.2083e+07
 Temperature = 275.969
Returning temperature from internal energy 
Here 
Internal energy 1.2083e+07
 Temperature = 275.968
Returning temperature from internal energy 
Here 
Internal energy 1.2083e+07
 Temperature = 275.968
Returning temperature from internal energy 
Here 
Internal energy 1.2083e+07
 Temperature = 275.968
Returning temperature from internal energy 
Here 
Internal energy 1.51065e+07
 Temperature = 345.145
reverse lookup in rhoTable_ 
-22.8499
celli 0
reverse lookup in rhoTable_ 
-22.8499
celli 1
reverse lookup in rhoTable_ 
-22.8499
celli 2
reverse lookup in rhoTable_ 
-22.8499
celli 3
reverse lookup in rhoTable_ 
-22.8661
celli 4
reverse lookup in rhoTable_ 
5.00383e-06
celli 5
reverse lookup in rhoTable_ 
5.00383e-06
celli 6
reverse lookup in rhoTable_ 
5.00383e-06
celli 7
reverse lookup in rhoTable_ 
5.00383e-06
celli 8
reverse lookup in rhoTable_ 
5.00383e-06
celli 9
reverse lookup in rhoTable_ 
5.00383e-06
reverse lookup in rhoTable_ 
-22.8499
ExecutionTime = 0.02 s  ClockTime = 0 s

deltaT = 7.60072e-05
Mean and max Courant Numbers = 0.0377516 0.0378998
Time = 0.00046795

diagonal:  Solving for rho, Initial residual = 0, Final residual = 0, No Iterations 0
diagonal:  Solving for rhoUx, Initial residual = 0, Final residual = 0, No Iterations 0
diagonal:  Solving for rhoE, Initial residual = 0, Final residual = 0, No Iterations 0
dimensions      [0 2 -2 0 0 0 0];

internalField   nonuniform List<scalar> 10(1.51065e+07 1.51065e+07 1.51065e+07 1.51058e+07 1.49629e+07 1.32824e+07 1.21296e+07 1.20831e+07 1.2083e+07 1.2083e+07);

boundaryField
{
    sides
    {
        type            gradientEnergy;
        gradient        uniform 0;
        value           nonuniform List<scalar> 2(1.2083e+07 1.51065e+07);
    }
    empty
    {
        type            empty;
    }
}

Es(p, T) @ p=22026.5 T=275.968 1.19628e+07
Es(p, T) @ p=108915 T=345.145 1.49636e+07
Es(p, T) @ p=22026.5 T=275.968 1.19628e+07
Es(p, T) @ p=108915 T=345.145 1.49636e+07
Correcting thermo quantities 
Calculating thermo quantities 
Returning temperature from internal energy 
Here 
Internal energy 1.51065e+07
 Temperature = 345.145
Returning temperature from internal energy 
Here 
Internal energy 1.51065e+07
 Temperature = 345.145
Returning temperature from internal energy 
Here 
Internal energy 1.51065e+07
 Temperature = 345.145
Returning temperature from internal energy 
Here 
Internal energy 1.51058e+07
 Temperature = 345.128
Returning temperature from internal energy 
Here 
Internal energy 1.49629e+07
 Temperature = 341.859
Returning temperature from internal energy 
Here 
Internal energy 1.32824e+07
 Temperature = 303.407
Returning temperature from internal energy 
Here 
Internal energy 1.21296e+07
 Temperature = 277.033
Returning temperature from internal energy 
Here 
Internal energy 1.20831e+07
 Temperature = 275.969
Returning temperature from internal energy 
Here 
Internal energy 1.2083e+07
 Temperature = 275.968
Returning temperature from internal energy 
Here 
Internal energy 1.2083e+07
 Temperature = 275.968
Returning temperature from internal energy 
Here 
Internal energy 1.2083e+07
 Temperature = 275.968
Returning temperature from internal energy 
Here 
Internal energy 1.51065e+07
 Temperature = 345.145
reverse lookup in rhoTable_ 
-22.8389
celli 0
reverse lookup in rhoTable_ 
-22.8389
celli 1
reverse lookup in rhoTable_ 
-22.8389
celli 2
reverse lookup in rhoTable_ 
-22.8389
celli 3
reverse lookup in rhoTable_ 
-22.858
celli 4
reverse lookup in rhoTable_ 
5.00383e-06
celli 5
reverse lookup in rhoTable_ 
5.00383e-06
celli 6
reverse lookup in rhoTable_ 
5.00383e-06
celli 7
reverse lookup in rhoTable_ 
5.00383e-06
celli 8
reverse lookup in rhoTable_ 
5.00383e-06
celli 9
reverse lookup in rhoTable_ 
5.00383e-06
reverse lookup in rhoTable_ 
-22.8389
ExecutionTime = 0.02 s  ClockTime = 0 s

deltaT = 8.8675e-05
Mean and max Courant Numbers = 0.0440513 0.04425
Time = 0.000556625

diagonal:  Solving for rho, Initial residual = 0, Final residual = 0, No Iterations 0
diagonal:  Solving for rhoUx, Initial residual = 0, Final residual = 0, No Iterations 0
diagonal:  Solving for rhoE, Initial residual = 0, Final residual = 0, No Iterations 0
dimensions      [0 2 -2 0 0 0 0];

internalField   nonuniform List<scalar> 10(1.51065e+07 1.51065e+07 1.51065e+07 1.51053e+07 1.49448e+07 1.33701e+07 1.21498e+07 1.20831e+07 1.2083e+07 1.2083e+07);

boundaryField
{
    sides
    {
        type            gradientEnergy;
        gradient        uniform 0;
        value           nonuniform List<scalar> 2(1.2083e+07 1.51065e+07);
    }
    empty
    {
        type            empty;
    }
}

Es(p, T) @ p=22026.5 T=275.968 1.19628e+07
Es(p, T) @ p=109287 T=345.145 1.49636e+07
Es(p, T) @ p=22026.5 T=275.968 1.19628e+07
Es(p, T) @ p=109287 T=345.145 1.49636e+07
Correcting thermo quantities 
Calculating thermo quantities 
Returning temperature from internal energy 
Here 
Internal energy 1.51065e+07
 Temperature = 345.145
Returning temperature from internal energy 
Here 
Internal energy 1.51065e+07
 Temperature = 345.145
Returning temperature from internal energy 
Here 
Internal energy 1.51065e+07
 Temperature = 345.145
Returning temperature from internal energy 
Here 
Internal energy 1.51053e+07
 Temperature = 345.118
Returning temperature from internal energy 
Here 
Internal energy 1.49448e+07
 Temperature = 341.444
Returning temperature from internal energy 
Here 
Internal energy 1.33701e+07
 Temperature = 305.414
Returning temperature from internal energy 
Here 
Internal energy 1.21498e+07
 Temperature = 277.496
Returning temperature from internal energy 
Here 
Internal energy 1.20831e+07
 Temperature = 275.971
Returning temperature from internal energy 
Here 
Internal energy 1.2083e+07
 Temperature = 275.968
Returning temperature from internal energy 
Here 
Internal energy 1.2083e+07
 Temperature = 275.968
Returning temperature from internal energy 
Here 
Internal energy 1.2083e+07
 Temperature = 275.968
Returning temperature from internal energy 
Here 
Internal energy 1.51065e+07
 Temperature = 345.145
reverse lookup in rhoTable_ 
-22.8278
celli 0
reverse lookup in rhoTable_ 
-22.8278
celli 1
reverse lookup in rhoTable_ 
-22.8278
celli 2
reverse lookup in rhoTable_ 
-22.8279
celli 3
reverse lookup in rhoTable_ 
-22.8503
celli 4
reverse lookup in rhoTable_ 
5.00383e-06
celli 5
reverse lookup in rhoTable_ 
5.00383e-06
celli 6
reverse lookup in rhoTable_ 
5.00383e-06
celli 7
reverse lookup in rhoTable_ 
5.00383e-06
celli 8
reverse lookup in rhoTable_ 
5.00383e-06
celli 9
reverse lookup in rhoTable_ 
5.00383e-06
reverse lookup in rhoTable_ 
-22.8278
ExecutionTime = 0.02 s  ClockTime = 0 s

deltaT = 0.000110844
Mean and max Courant Numbers = 0.0550749 0.0553581
Time = 0.000667469

diagonal:  Solving for rho, Initial residual = 0, Final residual = 0, No Iterations 0
diagonal:  Solving for rhoUx, Initial residual = 0, Final residual = 0, No Iterations 0
diagonal:  Solving for rhoE, Initial residual = 0, Final residual = 0, No Iterations 0
dimensions      [0 2 -2 0 0 0 0];

internalField   nonuniform List<scalar> 10(1.51065e+07 1.51065e+07 1.51065e+07 1.51046e+07 1.49248e+07 1.34565e+07 1.21784e+07 1.20833e+07 1.2083e+07 1.2083e+07);

boundaryField
{
    sides
    {
        type            gradientEnergy;
        gradient        uniform 0;
        value           nonuniform List<scalar> 2(1.2083e+07 1.51065e+07);
    }
    empty
    {
        type            empty;
    }
}

Es(p, T) @ p=22026.5 T=275.968 1.19628e+07
Es(p, T) @ p=109661 T=345.145 1.49636e+07
Es(p, T) @ p=22026.5 T=275.968 1.19628e+07
Es(p, T) @ p=109661 T=345.145 1.49636e+07
Correcting thermo quantities 
Calculating thermo quantities 
Returning temperature from internal energy 
Here 
Internal energy 1.51065e+07
 Temperature = 345.145
Returning temperature from internal energy 
Here 
Internal energy 1.51065e+07
 Temperature = 345.145
Returning temperature from internal energy 
Here 
Internal energy 1.51065e+07
 Temperature = 345.145
Returning temperature from internal energy 
Here 
Internal energy 1.51046e+07
 Temperature = 345.101
Returning temperature from internal energy 
Here 
Internal energy 1.49248e+07
 Temperature = 340.986
Returning temperature from internal energy 
Here 
Internal energy 1.34565e+07
 Temperature = 307.39
Returning temperature from internal energy 
Here 
Internal energy 1.21784e+07
 Temperature = 278.149
Returning temperature from internal energy 
Here 
Internal energy 1.20833e+07
 Temperature = 275.975
Returning temperature from internal energy 
Here 
Internal energy 1.2083e+07
 Temperature = 275.968
Returning temperature from internal energy 
Here 
Internal energy 1.2083e+07
 Temperature = 275.968
Returning temperature from internal energy 
Here 
Internal energy 1.2083e+07
 Temperature = 275.968
Returning temperature from internal energy 
Here 
Internal energy 1.51065e+07
 Temperature = 345.145
reverse lookup in rhoTable_ 
-22.8168
celli 0
reverse lookup in rhoTable_ 
-22.8168
celli 1
reverse lookup in rhoTable_ 
-22.8168
celli 2
reverse lookup in rhoTable_ 
-22.8169
celli 3
reverse lookup in rhoTable_ 
-22.843
celli 4
reverse lookup in rhoTable_ 
5.00383e-06
celli 5
reverse lookup in rhoTable_ 
5.00383e-06
celli 6
reverse lookup in rhoTable_ 
5.00383e-06
celli 7
reverse lookup in rhoTable_ 
5.00383e-06
celli 8
reverse lookup in rhoTable_ 
5.00383e-06
celli 9
reverse lookup in rhoTable_ 
5.00383e-06
reverse lookup in rhoTable_ 
-22.8168
ExecutionTime = 0.02 s  ClockTime = 0 s

deltaT = 0.000110844
Mean and max Courant Numbers = 0.0550876 0.0554106
Time = 0.000778312

[...]
reverse lookup in rhoTable_ 
5.00383e-06
celli 8
reverse lookup in rhoTable_ 
5.00383e-06
celli 9
reverse lookup in rhoTable_ 
5.00383e-06
reverse lookup in rhoTable_ 
-21.2541
ExecutionTime = 0.09 s  ClockTime = 1 s

deltaT = 0.000333333
Mean and max Courant Numbers = 0.183265 0.204582
Time = 0.048

diagonal:  Solving for rho, Initial residual = 0, Final residual = 0, No Iterations 0
diagonal:  Solving for rhoUx, Initial residual = 0, Final residual = 0, No Iterations 0
diagonal:  Solving for rhoE, Initial residual = 0, Final residual = 0, No Iterations 0
dimensions      [0 2 -2 0 0 0 0];

internalField   nonuniform List<scalar> 10(1.50963e+07 1.50942e+07 1.50865e+07 1.50704e+07 1.50426e+07 1.49714e+07 1.47554e+07 1.43164e+07 1.38007e+07 1.35408e+07);

boundaryField
{
    sides
    {
        type            gradientEnergy;
        gradient        uniform 0;
        value           nonuniform List<scalar> 2(1.35257e+07 1.50964e+07);
    }
    empty
    {
        type            empty;
    }
}

Es(p, T) @ p=22026.5 T=308.975 1.33917e+07
Es(p, T) @ p=178714 T=344.913 1.49536e+07
Es(p, T) @ p=22026.5 T=308.975 1.33917e+07
Es(p, T) @ p=178714 T=344.913 1.49536e+07
Correcting thermo quantities 
Calculating thermo quantities 
Returning temperature from internal energy 
Here 
Internal energy 1.50963e+07
 Temperature = 344.911
Returning temperature from internal energy 
Here 
Internal energy 1.50942e+07
 Temperature = 344.863
Returning temperature from internal energy 
Here 
Internal energy 1.50865e+07
 Temperature = 344.686
Returning temperature from internal energy 
Here 
Internal energy 1.50704e+07
 Temperature = 344.317
Returning temperature from internal energy 
Here 
Internal energy 1.50426e+07
 Temperature = 343.682
Returning temperature from internal energy 
Here 
Internal energy 1.49714e+07
 Temperature = 342.053
Returning temperature from internal energy 
Here 
Internal energy 1.47554e+07
 Temperature = 337.11
Returning temperature from internal energy 
Here 
Internal energy 1.43164e+07
 Temperature = 327.065
Returning temperature from internal energy 
Here 
Internal energy 1.38007e+07
 Temperature = 315.265
Returning temperature from internal energy 
Here 
Internal energy 1.35408e+07
 Temperature = 309.318
Returning temperature from internal energy 
Here 
Internal energy 1.35408e+07
 Temperature = 309.318
Returning temperature from internal energy 
Here 
Internal energy 1.50963e+07
 Temperature = 344.911
reverse lookup in rhoTable_ 
-21.2445
celli 0
reverse lookup in rhoTable_ 
-21.2514
celli 1
reverse lookup in rhoTable_ 
-21.2872
celli 2
reverse lookup in rhoTable_ 
-21.4201
celli 3
reverse lookup in rhoTable_ 
-21.9062
celli 4
reverse lookup in rhoTable_ 
5.00383e-06
celli 5
reverse lookup in rhoTable_ 
5.00383e-06
celli 6
reverse lookup in rhoTable_ 
5.00383e-06
celli 7
reverse lookup in rhoTable_ 
5.00383e-06
celli 8
reverse lookup in rhoTable_ 
5.00383e-06
celli 9
reverse lookup in rhoTable_ 
5.00383e-06
reverse lookup in rhoTable_ 
-21.2445
ExecutionTime = 0.1 s  ClockTime = 1 s

deltaT = 0.000333333
Mean and max Courant Numbers = 0.183473 0.205104
Time = 0.0483333

diagonal:  Solving for rho, Initial residual = 0, Final residual = 0, No Iterations 0
diagonal:  Solving for rhoUx, Initial residual = 0, Final residual = 0, No Iterations 0
diagonal:  Solving for rhoE, Initial residual = 0, Final residual = 0, No Iterations 0
dimensions      [0 2 -2 0 0 0 0];

internalField   nonuniform List<scalar> 10(1.50963e+07 1.50942e+07 1.50864e+07 1.50704e+07 1.50433e+07 1.4975e+07 1.47644e+07 1.43302e+07 1.38156e+07 1.35558e+07);

boundaryField
{
    sides
    {
        type            gradientEnergy;
        gradient        uniform 0;
        value           nonuniform List<scalar> 2(1.35407e+07 1.50963e+07);
    }
    empty
    {
        type            empty;
    }
}

Es(p, T) @ p=22026.5 T=309.318 1.34066e+07
Es(p, T) @ p=179248 T=344.911 1.49535e+07
Es(p, T) @ p=22026.5 T=309.318 1.34066e+07
Es(p, T) @ p=179248 T=344.911 1.49535e+07
Correcting thermo quantities 
Calculating thermo quantities 
Returning temperature from internal energy 
Here 
Internal energy 1.50963e+07
 Temperature = 344.91
Returning temperature from internal energy 
Here 
Internal energy 1.50942e+07
 Temperature = 344.862
Returning temperature from internal energy 
Here 
Internal energy 1.50864e+07
 Temperature = 344.684
Returning temperature from internal energy 
Here 
Internal energy 1.50704e+07
 Temperature = 344.317
Returning temperature from internal energy 
Here 
Internal energy 1.50433e+07
 Temperature = 343.698
Returning temperature from internal energy 
Here 
Internal energy 1.4975e+07
 Temperature = 342.135
Returning temperature from internal energy 
Here 
Internal energy 1.47644e+07
 Temperature = 337.317
Returning temperature from internal energy 
Here 
Internal energy 1.43302e+07
 Temperature = 327.38
Returning temperature from internal energy 
Here 
Internal energy 1.38156e+07
 Temperature = 315.607
Returning temperature from internal energy 
Here 
Internal energy 1.35558e+07
 Temperature = 309.661
Returning temperature from internal energy 
Here 
Internal energy 1.35558e+07
 Temperature = 309.661
Returning temperature from internal energy 
Here 
Internal energy 1.50963e+07
 Temperature = 344.91
reverse lookup in rhoTable_ 
-21.2349
celli 0
reverse lookup in rhoTable_ 
-21.2418
celli 1
reverse lookup in rhoTable_ 
-21.2777
celli 2
reverse lookup in rhoTable_ 
-21.4108
celli 3
reverse lookup in rhoTable_ 
-21.8966
celli 4
reverse lookup in rhoTable_ 
5.00383e-06
celli 5
reverse lookup in rhoTable_ 
5.00383e-06
celli 6
reverse lookup in rhoTable_ 
5.00383e-06
celli 7
reverse lookup in rhoTable_ 
5.00383e-06
celli 8
reverse lookup in rhoTable_ 
5.00383e-06
celli 9
reverse lookup in rhoTable_ 
5.00383e-06
reverse lookup in rhoTable_ 
-21.2349
ExecutionTime = 0.1 s  ClockTime = 1 s

deltaT = 0.000333333
Mean and max Courant Numbers = 0.183686 0.205636
Time = 0.0486667

diagonal:  Solving for rho, Initial residual = 0, Final residual = 0, No Iterations 0
diagonal:  Solving for rhoUx, Initial residual = 0, Final residual = 0, No Iterations 0
diagonal:  Solving for rhoE, Initial residual = 0, Final residual = 0, No Iterations 0
dimensions      [0 2 -2 0 0 0 0];

internalField   nonuniform List<scalar> 10(1.50962e+07 1.50941e+07 1.50863e+07 1.50703e+07 1.50439e+07 1.49785e+07 1.47733e+07 1.43437e+07 1.38305e+07 1.35708e+07);

boundaryField
{
    sides
    {
        type            gradientEnergy;
        gradient        uniform 0;
        value           nonuniform List<scalar> 2(1.35557e+07 1.50963e+07);
    }
    empty
    {
        type            empty;
    }
}

Es(p, T) @ p=22026.5 T=309.661 1.34215e+07
Es(p, T) @ p=179783 T=344.91 1.49534e+07
Es(p, T) @ p=22026.5 T=309.661 1.34215e+07
Es(p, T) @ p=179783 T=344.91 1.49534e+07
Correcting thermo quantities 
Calculating thermo quantities 
Returning temperature from internal energy 
Here 
Internal energy 1.50962e+07
 Temperature = 344.908
Returning temperature from internal energy 
Here 
Internal energy 1.50941e+07
 Temperature = 344.86
Returning temperature from internal energy 
Here 
Internal energy 1.50863e+07
 Temperature = 344.682
Returning temperature from internal energy 
Here 
Internal energy 1.50703e+07
 Temperature = 344.316
Returning temperature from internal energy 
Here 
Internal energy 1.50439e+07
 Temperature = 343.712
Returning temperature from internal energy 
Here 
Internal energy 1.49785e+07
 Temperature = 342.215
Returning temperature from internal energy 
Here 
Internal energy 1.47733e+07
 Temperature = 337.52
Returning temperature from internal energy 
Here 
Internal energy 1.43437e+07
 Temperature = 327.69
Returning temperature from internal energy 
Here 
Internal energy 1.38305e+07
 Temperature = 315.948
Returning temperature from internal energy 
Here 
Internal energy 1.35708e+07
 Temperature = 310.004
Returning temperature from internal energy 
Here 
Internal energy 1.35708e+07
 Temperature = 310.004
Returning temperature from internal energy 
Here 
Internal energy 1.50962e+07
 Temperature = 344.908
reverse lookup in rhoTable_ 
-21.2253
celli 0
reverse lookup in rhoTable_ 
-21.2323
celli 1
reverse lookup in rhoTable_ 
-21.2682
celli 2
reverse lookup in rhoTable_ 
-21.4014
celli 3
reverse lookup in rhoTable_ 
-21.887
celli 4
reverse lookup in rhoTable_ 
5.00383e-06
celli 5
reverse lookup in rhoTable_ 
5.00383e-06
celli 6
reverse lookup in rhoTable_ 
5.00383e-06
celli 7
reverse lookup in rhoTable_ 
5.00383e-06
celli 8
reverse lookup in rhoTable_ 
5.00383e-06
celli 9
reverse lookup in rhoTable_ 
5.00383e-06
reverse lookup in rhoTable_ 
-21.2253
ExecutionTime = 0.1 s  ClockTime = 1 s

deltaT = 0.000333333
Mean and max Courant Numbers = 0.183904 0.20618
Time = 0.049

diagonal:  Solving for rho, Initial residual = 0, Final residual = 0, No Iterations 0
diagonal:  Solving for rhoUx, Initial residual = 0, Final residual = 0, No Iterations 0
diagonal:  Solving for rhoE, Initial residual = 0, Final residual = 0, No Iterations 0
dimensions      [0 2 -2 0 0 0 0];

internalField   nonuniform List<scalar> 10(1.50961e+07 1.5094e+07 1.50862e+07 1.50702e+07 1.50445e+07 1.49819e+07 1.47821e+07 1.43571e+07 1.38453e+07 1.35858e+07);

boundaryField
{
    sides
    {
        type            gradientEnergy;
        gradient        uniform 0;
        value           nonuniform List<scalar> 2(1.35707e+07 1.50962e+07);
    }
    empty
    {
        type            empty;
    }
}

Es(p, T) @ p=22026.5 T=310.004 1.34364e+07
Es(p, T) @ p=180318 T=344.908 1.49534e+07
Es(p, T) @ p=22026.5 T=310.004 1.34364e+07
Es(p, T) @ p=180318 T=344.908 1.49534e+07
Correcting thermo quantities 
Calculating thermo quantities 
Returning temperature from internal energy 
Here 
Internal energy 1.50961e+07
 Temperature = 344.906
Returning temperature from internal energy 
Here 
Internal energy 1.5094e+07
 Temperature = 344.858
Returning temperature from internal energy 
Here 
Internal energy 1.50862e+07
 Temperature = 344.679
Returning temperature from internal energy 
Here 
Internal energy 1.50702e+07
 Temperature = 344.314
Returning temperature from internal energy 
Here 
Internal energy 1.50445e+07
 Temperature = 343.725
Returning temperature from internal energy 
Here 
Internal energy 1.49819e+07
 Temperature = 342.293
Returning temperature from internal energy 
Here 
Internal energy 1.47821e+07
 Temperature = 337.72
Returning temperature from internal energy 
Here 
Internal energy 1.43571e+07
 Temperature = 327.996
Returning temperature from internal energy 
Here 
Internal energy 1.38453e+07
 Temperature = 316.286
Returning temperature from internal energy 
Here 
Internal energy 1.35858e+07
 Temperature = 310.347
Returning temperature from internal energy 
Here 
Internal energy 1.35858e+07
 Temperature = 310.347
Returning temperature from internal energy 
Here 
Internal energy 1.50961e+07
 Temperature = 344.906
reverse lookup in rhoTable_ 
-21.2158
celli 0
reverse lookup in rhoTable_ 
-21.2227
celli 1
reverse lookup in rhoTable_ 
-21.2588
celli 2
reverse lookup in rhoTable_ 
-21.3921
celli 3
reverse lookup in rhoTable_ 
-21.8775
celli 4
reverse lookup in rhoTable_ 
5.00383e-06
celli 5
reverse lookup in rhoTable_ 
5.00383e-06
celli 6
reverse lookup in rhoTable_ 
5.00383e-06
celli 7
reverse lookup in rhoTable_ 
5.00383e-06
celli 8
reverse lookup in rhoTable_ 
5.00383e-06
celli 9
reverse lookup in rhoTable_ 
5.00383e-06
reverse lookup in rhoTable_ 
-21.2158
ExecutionTime = 0.1 s  ClockTime = 1 s

deltaT = 0.000333333
Mean and max Courant Numbers = 0.184129 0.206736
Time = 0.0493333

diagonal:  Solving for rho, Initial residual = 0, Final residual = 0, No Iterations 0
diagonal:  Solving for rhoUx, Initial residual = 0, Final residual = 0, No Iterations 0
diagonal:  Solving for rhoE, Initial residual = 0, Final residual = 0, No Iterations 0
dimensions      [0 2 -2 0 0 0 0];

internalField   nonuniform List<scalar> 10(1.5096e+07 1.50939e+07 1.50861e+07 1.50702e+07 1.5045e+07 1.49852e+07 1.47906e+07 1.43703e+07 1.38601e+07 1.36007e+07);

boundaryField
{
    sides
    {
        type            gradientEnergy;
        gradient        uniform 0;
        value           nonuniform List<scalar> 2(1.35857e+07 1.50961e+07);
    }
    empty
    {
        type            empty;
    }
}

Es(p, T) @ p=22026.5 T=310.347 1.34513e+07
Es(p, T) @ p=180854 T=344.906 1.49533e+07
Es(p, T) @ p=22026.5 T=310.347 1.34513e+07
Es(p, T) @ p=180854 T=344.906 1.49533e+07
Correcting thermo quantities 
Calculating thermo quantities 
Returning temperature from internal energy 
Here 
Internal energy 1.5096e+07
 Temperature = 344.905
Returning temperature from internal energy 
Here 
Internal energy 1.50939e+07
 Temperature = 344.856
Returning temperature from internal energy 
Here 
Internal energy 1.50861e+07
 Temperature = 344.677
Returning temperature from internal energy 
Here 
Internal energy 1.50702e+07
 Temperature = 344.312
Returning temperature from internal energy 
Here 
Internal energy 1.5045e+07
 Temperature = 343.737
Returning temperature from internal energy 
Here 
Internal energy 1.49852e+07
 Temperature = 342.368
Returning temperature from internal energy 
Here 
Internal energy 1.47906e+07
 Temperature = 337.915
Returning temperature from internal energy 
Here 
Internal energy 1.43703e+07
 Temperature = 328.297
Returning temperature from internal energy 
Here 
Internal energy 1.38601e+07
 Temperature = 316.623
Returning temperature from internal energy 
Here 
Internal energy 1.36007e+07
 Temperature = 310.69
Returning temperature from internal energy 
Here 
Internal energy 1.36007e+07
 Temperature = 310.69
Returning temperature from internal energy 
Here 
Internal energy 1.5096e+07
 Temperature = 344.905
reverse lookup in rhoTable_ 
-21.2062
celli 0
reverse lookup in rhoTable_ 
-21.2132
celli 1
reverse lookup in rhoTable_ 
-21.2494
celli 2
reverse lookup in rhoTable_ 
-21.3828
celli 3
reverse lookup in rhoTable_ 
-21.8679
celli 4
reverse lookup in rhoTable_ 
5.00383e-06
celli 5
reverse lookup in rhoTable_ 
5.00383e-06
celli 6
reverse lookup in rhoTable_ 
5.00383e-06
celli 7
reverse lookup in rhoTable_ 
5.00383e-06
celli 8
reverse lookup in rhoTable_ 
5.00383e-06
celli 9
reverse lookup in rhoTable_ 
5.00383e-06
reverse lookup in rhoTable_ 
-21.2062
ExecutionTime = 0.1 s  ClockTime = 1 s

deltaT = 0.000333333
Mean and max Courant Numbers = 0.18436 0.207302
Time = 0.0496667

diagonal:  Solving for rho, Initial residual = 0, Final residual = 0, No Iterations 0
diagonal:  Solving for rhoUx, Initial residual = 0, Final residual = 0, No Iterations 0
diagonal:  Solving for rhoE, Initial residual = 0, Final residual = 0, No Iterations 0
dimensions      [0 2 -2 0 0 0 0];

internalField   nonuniform List<scalar> 10(1.5096e+07 1.50938e+07 1.5086e+07 1.507e+07 1.50455e+07 1.49884e+07 1.47989e+07 1.43832e+07 1.38747e+07 1.36157e+07);

boundaryField
{
    sides
    {
        type            gradientEnergy;
        gradient        uniform 0;
        value           nonuniform List<scalar> 2(1.36007e+07 1.5096e+07);
    }
    empty
    {
        type            empty;
    }
}

Es(p, T) @ p=22026.5 T=310.69 1.34662e+07
Es(p, T) @ p=181391 T=344.905 1.49532e+07
Es(p, T) @ p=22026.5 T=310.69 1.34662e+07
Es(p, T) @ p=181391 T=344.905 1.49532e+07
Correcting thermo quantities 
Calculating thermo quantities 
Returning temperature from internal energy 
Here 
Internal energy 1.5096e+07
 Temperature = 344.903
Returning temperature from internal energy 
Here 
Internal energy 1.50938e+07
 Temperature = 344.854
Returning temperature from internal energy 
Here 
Internal energy 1.5086e+07
 Temperature = 344.674
Returning temperature from internal energy 
Here 
Internal energy 1.507e+07
 Temperature = 344.31
Returning temperature from internal energy 
Here 
Internal energy 1.50455e+07
 Temperature = 343.748
Returning temperature from internal energy 
Here 
Internal energy 1.49884e+07
 Temperature = 342.441
Returning temperature from internal energy 
Here 
Internal energy 1.47989e+07
 Temperature = 338.106
Returning temperature from internal energy 
Here 
Internal energy 1.43832e+07
 Temperature = 328.593
Returning temperature from internal energy 
Here 
Internal energy 1.38747e+07
 Temperature = 316.958
Returning temperature from internal energy 
Here 
Internal energy 1.36157e+07
 Temperature = 311.033
Returning temperature from internal energy 
Here 
Internal energy 1.36157e+07
 Temperature = 311.033
Returning temperature from internal energy 
Here 
Internal energy 1.5096e+07
 Temperature = 344.903
reverse lookup in rhoTable_ 
-21.1967
celli 0
reverse lookup in rhoTable_ 
-21.2037
celli 1
reverse lookup in rhoTable_ 
-21.24
celli 2
reverse lookup in rhoTable_ 
-21.3735
celli 3
reverse lookup in rhoTable_ 
-21.8583
celli 4
reverse lookup in rhoTable_ 
5.00383e-06
celli 5
reverse lookup in rhoTable_ 
5.00383e-06
celli 6
reverse lookup in rhoTable_ 
5.00383e-06
celli 7
reverse lookup in rhoTable_ 
5.00383e-06
celli 8
reverse lookup in rhoTable_ 
5.00383e-06
celli 9
reverse lookup in rhoTable_ 
5.00383e-06
reverse lookup in rhoTable_ 
-21.1967
ExecutionTime = 0.1 s  ClockTime = 1 s

deltaT = 0.000333333
Mean and max Courant Numbers = 0.184601 0.207886
Time = 0.05

diagonal:  Solving for rho, Initial residual = 0, Final residual = 0, No Iterations 0
diagonal:  Solving for rhoUx, Initial residual = 0, Final residual = 0, No Iterations 0
diagonal:  Solving for rhoE, Initial residual = 0, Final residual = 0, No Iterations 0
dimensions      [0 2 -2 0 0 0 0];

internalField   nonuniform List<scalar> 10(1.50959e+07 1.50937e+07 1.50858e+07 1.50699e+07 1.50459e+07 1.49914e+07 1.48071e+07 1.43959e+07 1.38892e+07 1.36307e+07);

boundaryField
{
    sides
    {
        type            gradientEnergy;
        gradient        uniform 0;
        value           nonuniform List<scalar> 2(1.36156e+07 1.5096e+07);
    }
    empty
    {
        type            empty;
    }
}

Es(p, T) @ p=22026.5 T=311.033 1.34811e+07
Es(p, T) @ p=181928 T=344.903 1.49531e+07
Es(p, T) @ p=22026.5 T=311.033 1.34811e+07
Es(p, T) @ p=181928 T=344.903 1.49531e+07
Correcting thermo quantities 
Calculating thermo quantities 
Returning temperature from internal energy 
Here 
Internal energy 1.50959e+07
 Temperature = 344.901
Returning temperature from internal energy 
Here 
Internal energy 1.50937e+07
 Temperature = 344.852
Returning temperature from internal energy 
Here 
Internal energy 1.50858e+07
 Temperature = 344.671
Returning temperature from internal energy 
Here 
Internal energy 1.50699e+07
 Temperature = 344.307
Returning temperature from internal energy 
Here 
Internal energy 1.50459e+07
 Temperature = 343.758
Returning temperature from internal energy 
Here 
Internal energy 1.49914e+07
 Temperature = 342.511
Returning temperature from internal energy 
Here 
Internal energy 1.48071e+07
 Temperature = 338.292
Returning temperature from internal energy 
Here 
Internal energy 1.43959e+07
 Temperature = 328.884
Returning temperature from internal energy 
Here 
Internal energy 1.38892e+07
 Temperature = 317.29
Returning temperature from internal energy 
Here 
Internal energy 1.36307e+07
 Temperature = 311.375
Returning temperature from internal energy 
Here 
Internal energy 1.36307e+07
 Temperature = 311.375
Returning temperature from internal energy 
Here 
Internal energy 1.50959e+07
 Temperature = 344.901
reverse lookup in rhoTable_ 
-21.1872
celli 0
reverse lookup in rhoTable_ 
-21.1942
celli 1
reverse lookup in rhoTable_ 
-21.2306
celli 2
reverse lookup in rhoTable_ 
-21.3642
celli 3
reverse lookup in rhoTable_ 
-21.8488
celli 4
reverse lookup in rhoTable_ 
5.00383e-06
celli 5
reverse lookup in rhoTable_ 
5.00383e-06
celli 6
reverse lookup in rhoTable_ 
5.00383e-06
celli 7
reverse lookup in rhoTable_ 
5.00383e-06
celli 8
reverse lookup in rhoTable_ 
5.00383e-06
celli 9
reverse lookup in rhoTable_ 
5.00383e-06
reverse lookup in rhoTable_ 
-21.1872
ExecutionTime = 0.1 s  ClockTime = 1 s

End

