/*---------------------------------------------------------------------------*\
| =========                 |                                                 |
| \\      /  F ield         | OpenFOAM: The Open Source CFD Toolbox           |
|  \\    /   O peration     | Version:  2312                                  |
|   \\  /    A nd           | Website:  www.openfoam.com                      |
|    \\/     M anipulation  |                                                 |
\*---------------------------------------------------------------------------*/
Build  : ebe49d4cbd-20240119 OPENFOAM=2312 version=v2312
Arch   : "LSB;label=32;scalar=64"
Exec   : rhoChamberFoam
Date   : Mar 01 2024
Time   : 13:16:37
Host   : nuen-mj0jdqvm.engr.tamu.edu
PID    : 1654673
I/O    : uncollated
Case   : /home/grads/n/nahom.habtemariam/Cases/ChamberDynamics/2D/HYLIFE_II/coarseInflatedRhoChamber
nProcs : 1
trapFpe: Floating point exception trapping enabled (FOAM_SIGFPE).
fileModificationChecking : Monitoring run-time modified files using timeStampMaster (fileModificationSkew 5, maxFileModificationPolls 20)
allowSystemOperations : Allowing user-supplied system call operations

// * * * * * * * * * * * * * * * * * * * * * * * * * * * * * * * * * * * * * //
Create time

Create mesh for time = 0

Reading thermophysical properties

Selecting thermodynamics package 
{
    type            myHeRhoThermo;
    mixture         myPureMixture;
    transport       const;
    thermo          eTabulated;
    equationOfState tabulatedEOS;
    specie          mySpecie;
    energy          tabulatedInternalEnergy;
}

 Constructed field in myBasicThermo constructor : p
dimensions      [1 -1 -2 0 0 0 0];

internalField   nonuniform List<scalar> 
10114
(
1187.71
1187.71
1187.71
1187.71
1187.71
1187.71
1187.71
1187.71
1187.71
1187.71
1187.71
1187.71
1187.71
1187.71
1187.71
1187.71
1187.71
1187.71
1187.71
1187.71
1187.71
1187.71
1187.71
1187.71
1187.71
1187.71
1187.71
1187.71
1187.71
1187.71
1187.71
1187.71
1187.71
1187.71
1187.71
1187.71
1187.71
1187.71
1187.71
1187.71
1187.71
1187.71
1187.71
1187.71
1187.71
1187.71
1187.71
1187.71
1187.71
1187.71
1187.71
1187.71
1187.71
1187.71
1187.71
1187.71
1187.71
1187.71
1187.71
1187.71
1187.71
1187.71
1187.71
1187.71
1187.71
1187.71
1187.71
1187.71
1187.71
1187.71
1187.71
1187.71
1187.71
1187.71
1187.71
1187.71
1187.71
1187.71
1187.71
1187.71
1187.71
1187.71
1187.71
1187.71
1187.71
1187.71
1187.71
1187.71
1187.71
1187.71
1187.71
1187.71
1187.71
1187.71
1187.71
1187.71
1187.71
1187.71
1187.71
1187.71
1187.71
1187.71
1187.71
1187.71
1187.71
1187.71
1187.71
1187.71
1187.71
1187.71
1187.71
1187.71
1187.71
1187.71
1187.71
1187.71
1187.71
1187.71
1187.71
1187.71
1187.71
1187.71
1187.71
1187.71
1187.71
1187.71
1187.71
1187.71
1187.71
1187.71
1187.71
1187.71
1187.71
1187.71
1187.71
1187.71
1187.71
1187.71
1187.71
1187.71
1187.71
1187.71
1187.71
1187.71
1187.71
1187.71
1187.71
1187.71
1187.71
1187.71
1187.71
1187.71
1187.71
1187.71
1187.71
1187.71
1187.71
1187.71
1187.71
1187.71
1187.71
1187.71
1187.71
1187.71
1187.71
1187.71
1187.71
1187.71
1187.71
1187.71
1187.71
1187.71
1187.71
1187.71
1187.71
1187.71
1187.71
1187.71
1187.71
1187.71
1187.71
1187.71
1187.71
1187.71
1187.71
1187.71
1187.71
1187.71
1187.71
1187.71
1187.71
1187.71
1187.71
1187.71
1187.71
1187.71
1187.71
1187.71
1187.71
1187.71
1187.71
1187.71
1187.71
1187.71
1187.71
1187.71
1187.71
1187.71
1187.71
1187.71
1187.71
1187.71
1187.71
1187.71
1187.71
1187.71
1187.71
1187.71
1187.71
1187.71
1187.71
1187.71
1187.71
1187.71
1187.71
1187.71
1187.71
1187.71
1187.71
1187.71
1187.71
1187.71
1187.71
1187.71
1187.71
1187.71
1187.71
1187.71
1187.71
1187.71
1187.71
1187.71
1187.71
1187.71
1187.71
1187.71
1187.71
1187.71
1187.71
1187.71
1187.71
1187.71
1187.71
1187.71
1187.71
1187.71
1187.71
1187.71
1187.71
1187.71
1187.71
1187.71
1187.71
1187.71
1187.71
1187.71
1187.71
1187.71
1187.71
1187.71
1187.71
1187.71
1187.71
1187.71
1187.71
1187.71
1187.71
1187.71
1187.71
1187.71
1187.71
1187.71
1187.71
1187.71
1187.71
1187.71
1187.71
1187.71
1187.71
1187.71
1187.71
1187.71
1187.71
1187.71
1187.71
1187.71
1187.71
1187.71
1187.71
1187.71
1187.71
1187.71
1187.71
1187.71
1187.71
1187.71
1187.71
1187.71
1187.71
1187.71
1187.71
1187.71
1187.71
1187.71
1187.71
1187.71
1187.71
1187.71
1187.71
1187.71
1187.71
1187.71
1187.71
1187.71
1187.71
1187.71
1187.71
1187.71
1187.71
1187.71
1187.71
1187.71
1187.71
1187.71
1187.71
1187.71
1187.71
1187.71
1187.71
1187.71
1187.71
1187.71
1187.71
1187.71
1187.71
1187.71
1187.71
1187.71
1187.71
1187.71
1187.71
1187.71
1187.71
1187.71
1187.71
1187.71
1187.71
1187.71
1187.71
1187.71
1187.71
1187.71
1187.71
1187.71
1187.71
1187.71
1187.71
1187.71
1187.71
1187.71
1187.71
1187.71
1187.71
1187.71
1187.71
1187.71
1187.71
1187.71
1187.71
1187.71
1187.71
1187.71
1187.71
1187.71
1187.71
1187.71
1187.71
1187.71
1187.71
1187.71
1187.71
1187.71
1187.71
1187.71
1187.71
1187.71
1187.71
1187.71
1187.71
1187.71
1187.71
1187.71
1187.71
1187.71
1187.71
1187.71
1187.71
1187.71
1187.71
1187.71
1187.71
1187.71
1187.71
1187.71
1187.71
1187.71
1187.71
1187.71
1187.71
1187.71
1187.71
1187.71
1187.71
1187.71
1187.71
1187.71
1187.71
1187.71
1187.71
1187.71
1187.71
1187.71
1187.71
1187.71
1187.71
1187.71
1187.71
1187.71
1187.71
1187.71
1187.71
1187.71
1187.71
1187.71
1187.71
1187.71
1187.71
1187.71
1187.71
1187.71
1187.71
1187.71
1187.71
1187.71
1187.71
1187.71
1187.71
1187.71
1187.71
1187.71
1187.71
1187.71
1187.71
1187.71
1187.71
1187.71
1187.71
1187.71
1187.71
1187.71
1187.71
1187.71
1187.71
1187.71
1187.71
1187.71
1187.71
1187.71
1187.71
1187.71
1187.71
1187.71
1187.71
1187.71
1187.71
1187.71
1187.71
1187.71
1187.71
1187.71
1187.71
1187.71
1187.71
1187.71
1187.71
1187.71
1187.71
1187.71
1187.71
1187.71
1187.71
1187.71
1187.71
1187.71
1187.71
1187.71
1187.71
1187.71
1187.71
1187.71
1187.71
1187.71
1187.71
1187.71
1187.71
1187.71
1187.71
1187.71
1187.71
1187.71
1187.71
1187.71
1187.71
1187.71
1187.71
1187.71
1187.71
1187.71
1187.71
1187.71
1187.71
1187.71
1187.71
1187.71
1187.71
1187.71
1187.71
1187.71
1187.71
1187.71
1187.71
1187.71
1187.71
1187.71
1187.71
1187.71
1187.71
1187.71
1187.71
1187.71
1187.71
1187.71
1187.71
1187.71
1187.71
1187.71
1187.71
1187.71
1187.71
1187.71
1187.71
1187.71
1187.71
1187.71
1187.71
1187.71
1187.71
1187.71
1187.71
1187.71
1187.71
1187.71
1187.71
1187.71
1187.71
1187.71
1187.71
1187.71
1187.71
1187.71
1187.71
1187.71
1187.71
1187.71
1187.71
1187.71
1187.71
1187.71
1187.71
1187.71
1187.71
1187.71
1187.71
1187.71
1187.71
1187.71
1187.71
1187.71
1187.71
1187.71
1187.71
1187.71
1187.71
1187.71
1187.71
1187.71
1187.71
1187.71
1187.71
1187.71
1187.71
1187.71
1187.71
1187.71
1187.71
1187.71
1187.71
1187.71
1187.71
1187.71
1187.71
1187.71
1187.71
1187.71
1187.71
1187.71
1187.71
1187.71
1187.71
1187.71
1187.71
1187.71
1187.71
1187.71
1187.71
1187.71
1187.71
1187.71
1187.71
1187.71
1187.71
1187.71
1187.71
1187.71
1187.71
1187.71
1187.71
1187.71
1187.71
1187.71
1187.71
1187.71
1187.71
1187.71
1187.71
1187.71
1187.71
1187.71
1187.71
1187.71
1187.71
1187.71
1187.71
1187.71
1187.71
1187.71
1187.71
1187.71
1187.71
1187.71
1187.71
1187.71
1187.71
1187.71
1187.71
1187.71
1187.71
1187.71
1187.71
1187.71
1187.71
1187.71
1187.71
1187.71
1187.71
1187.71
1187.71
1187.71
1187.71
1187.71
1187.71
1187.71
1187.71
1187.71
1187.71
1187.71
1187.71
1187.71
1187.71
1187.71
1187.71
1187.71
1187.71
1187.71
1187.71
1187.71
1187.71
1187.71
1187.71
1187.71
1187.71
1187.71
1187.71
1187.71
1187.71
1187.71
1187.71
1187.71
1187.71
1187.71
1187.71
1187.71
1187.71
1187.71
1187.71
1187.71
1187.71
1187.71
1187.71
1187.71
1187.71
1187.71
1187.71
1187.71
1187.71
1187.71
1187.71
1187.71
1187.71
1187.71
1187.71
1187.71
1187.71
1187.71
1187.71
1187.71
1187.71
1187.71
1187.71
1187.71
1187.71
1187.71
1187.71
1187.71
1187.71
1187.71
1187.71
1187.71
1187.71
1187.71
1187.71
1187.71
1187.71
1187.71
1187.71
1187.71
1187.71
1187.71
1187.71
1187.71
1187.71
1187.71
1187.71
1187.71
1187.71
1187.71
1187.71
1187.71
1187.71
1187.71
1187.71
1187.71
1187.71
1187.71
1187.71
1187.71
1187.71
1187.71
1187.71
1187.71
1187.71
1187.71
1187.71
1187.71
1187.71
1187.71
1187.71
1187.71
1187.71
1187.71
1187.71
1187.71
1187.71
1187.71
1187.71
1187.71
1187.71
1187.71
1187.71
1187.71
1187.71
1187.71
1187.71
1187.71
1187.71
1187.71
1187.71
1187.71
1187.71
1187.71
1187.71
1187.71
1187.71
1187.71
1187.71
1187.71
1187.71
1187.71
1187.71
1187.71
1187.71
1187.71
1187.71
1187.71
1187.71
1187.71
1187.71
1187.71
1187.71
1187.71
1187.71
1187.71
1187.71
1187.71
1187.71
1187.71
1187.71
1187.71
1187.71
1187.71
1187.71
1187.71
1187.71
1187.71
1187.71
1187.71
1187.71
1187.71
1187.71
1187.71
1187.71
1187.71
1187.71
1187.71
1187.71
1187.71
1187.71
1187.71
1187.71
1187.71
1187.71
1187.71
1187.71
1187.71
1187.71
1187.71
1187.71
1187.71
1187.71
1187.71
1187.71
1187.71
1187.71
1187.71
1187.71
1187.71
1187.71
1187.71
1187.71
1187.71
1187.71
1187.71
1187.71
1187.71
1187.71
1187.71
1187.71
1187.71
1187.71
1187.71
1187.71
1187.71
1187.71
1187.71
1187.71
1187.71
1187.71
1187.71
1187.71
1187.71
1187.71
1187.71
1187.71
1187.71
1187.71
1187.71
1187.71
1187.71
1187.71
1187.71
1187.71
1187.71
1187.71
1187.71
1187.71
1187.71
1187.71
1187.71
1187.71
1187.71
1187.71
1187.71
1187.71
1187.71
1187.71
1187.71
1187.71
1187.71
1187.71
1187.71
1187.71
1187.71
1187.71
1187.71
1187.71
1187.71
1187.71
1187.71
1187.71
1187.71
1187.71
1187.71
1187.71
1187.71
1187.71
1187.71
1187.71
1187.71
1187.71
1187.71
1187.71
1187.71
1187.71
1187.71
1187.71
1187.71
1187.71
1187.71
1187.71
1187.71
1187.71
1187.71
1187.71
1187.71
1187.71
1187.71
1187.71
1187.71
1187.71
1187.71
1187.71
1187.71
1187.71
1187.71
1187.71
1187.71
1187.71
1187.71
1187.71
1187.71
1187.71
1187.71
1187.71
1187.71
1187.71
1187.71
1187.71
1187.71
1187.71
1187.71
1187.71
1187.71
1187.71
1187.71
1187.71
1187.71
1187.71
1187.71
1187.71
1187.71
1187.71
1187.71
1187.71
1187.71
1187.71
1187.71
1187.71
1187.71
1187.71
1187.71
1187.71
1187.71
1187.71
1187.71
1187.71
1187.71
1187.71
1187.71
1187.71
1187.71
1187.71
1187.71
1187.71
1187.71
1187.71
1187.71
1187.71
1187.71
1187.71
1187.71
1187.71
1187.71
1187.71
1187.71
1187.71
1187.71
1187.71
1187.71
1187.71
1187.71
1187.71
1187.71
1187.71
1187.71
1187.71
1187.71
1187.71
1187.71
1187.71
1187.71
1187.71
1187.71
1187.71
1187.71
1187.71
1187.71
1187.71
1187.71
1187.71
1187.71
1187.71
1187.71
1187.71
1187.71
1187.71
1187.71
1187.71
1187.71
1187.71
1187.71
1187.71
1187.71
1187.71
1187.71
1187.71
1187.71
1187.71
1187.71
1187.71
1187.71
1187.71
1187.71
1187.71
1187.71
1187.71
1187.71
1187.71
1187.71
1187.71
1187.71
1187.71
1187.71
1187.71
1187.71
1187.71
1187.71
1187.71
1187.71
1187.71
1187.71
1187.71
1187.71
1187.71
1187.71
1187.71
1187.71
1187.71
1187.71
1187.71
1187.71
1187.71
1187.71
1187.71
1187.71
1187.71
1187.71
1187.71
1187.71
1187.71
1187.71
1187.71
1187.71
1187.71
1187.71
1187.71
1187.71
1187.71
1187.71
1187.71
1187.71
1187.71
1187.71
1187.71
1187.71
1187.71
1187.71
1187.71
1187.71
1187.71
1187.71
1187.71
1187.71
1187.71
1187.71
1187.71
1187.71
1187.71
1187.71
1187.71
1187.71
1187.71
1187.71
1187.71
1187.71
1187.71
1187.71
1187.71
1187.71
1187.71
1187.71
1187.71
1187.71
1187.71
1187.71
1187.71
1187.71
1187.71
1187.71
1187.71
1187.71
1187.71
1187.71
1187.71
1187.71
1187.71
1187.71
1187.71
1187.71
1187.71
1187.71
1187.71
1187.71
1187.71
1187.71
1187.71
1187.71
1187.71
1187.71
1187.71
1187.71
1187.71
1187.71
1187.71
1187.71
1187.71
1187.71
1187.71
1187.71
1187.71
1187.71
1187.71
1187.71
1187.71
1187.71
1187.71
1187.71
1187.71
1187.71
1187.71
1187.71
1187.71
1187.71
1187.71
1187.71
1187.71
1187.71
1187.71
1187.71
1187.71
1187.71
1187.71
1187.71
1187.71
1187.71
1187.71
1187.71
1187.71
1187.71
1187.71
1187.71
1187.71
1187.71
1187.71
1187.71
1187.71
1187.71
1187.71
1187.71
1187.71
1187.71
1187.71
1187.71
1187.71
1187.71
1187.71
1187.71
1187.71
1187.71
1187.71
1187.71
1187.71
1187.71
1187.71
1187.71
1187.71
1187.71
1187.71
1187.71
1187.71
1187.71
1187.71
1187.71
1187.71
1187.71
1187.71
1187.71
1187.71
1187.71
1187.71
1187.71
1187.71
1187.71
1187.71
1187.71
1187.71
1187.71
1187.71
1187.71
1187.71
1187.71
1187.71
1187.71
1187.71
1187.71
1187.71
1187.71
1187.71
1187.71
1187.71
1187.71
1187.71
1187.71
1187.71
1187.71
1187.71
1187.71
1187.71
1187.71
1187.71
1187.71
1187.71
1187.71
1187.71
1187.71
1187.71
1187.71
1187.71
1187.71
1187.71
1187.71
1187.71
1187.71
1187.71
1187.71
1187.71
1187.71
1187.71
1187.71
1187.71
1187.71
1187.71
1187.71
1187.71
1187.71
1187.71
1187.71
1187.71
1187.71
1187.71
1187.71
1187.71
1187.71
1187.71
1187.71
1187.71
1187.71
1187.71
1187.71
1187.71
1187.71
1187.71
1187.71
1187.71
1187.71
1187.71
1187.71
1187.71
1187.71
1187.71
1187.71
1187.71
1187.71
1187.71
1187.71
1187.71
1187.71
1187.71
1187.71
1187.71
1187.71
1187.71
1187.71
1187.71
1187.71
1187.71
1187.71
1187.71
1187.71
1187.71
1187.71
1187.71
1187.71
1187.71
1187.71
1187.71
1187.71
1187.71
1187.71
1187.71
1187.71
1187.71
1187.71
1187.71
1187.71
1187.71
1187.71
1187.71
1187.71
1187.71
1187.71
1187.71
1187.71
1187.71
1187.71
1187.71
1187.71
1187.71
1187.71
1187.71
1187.71
1187.71
1187.71
1187.71
1187.71
1187.71
1187.71
1187.71
1187.71
1187.71
1187.71
1187.71
1187.71
1187.71
1187.71
1187.71
1187.71
1187.71
1187.71
1187.71
1187.71
1187.71
1187.71
1187.71
1187.71
1187.71
1187.71
1187.71
1187.71
1187.71
1187.71
1187.71
1187.71
1187.71
1187.71
1187.71
1187.71
1187.71
1187.71
1187.71
1187.71
1187.71
1187.71
1187.71
1187.71
1187.71
1187.71
1187.71
1187.71
1187.71
1187.71
1187.71
1187.71
1187.71
1187.71
1187.71
1187.71
1187.71
1187.71
1187.71
1187.71
1187.71
1187.71
1187.71
1187.71
1187.71
1187.71
1187.71
1187.71
1187.71
1187.71
1187.71
1187.71
1187.71
1187.71
1187.71
1187.71
1187.71
1187.71
1187.71
1187.71
1187.71
1187.71
1187.71
1187.71
1187.71
1187.71
1187.71
1187.71
1187.71
1187.71
1187.71
1187.71
1187.71
1187.71
1187.71
1187.71
1187.71
1187.71
1187.71
1187.71
1187.71
1187.71
1187.71
1187.71
1187.71
1187.71
1187.71
1187.71
1187.71
1187.71
1187.71
1187.71
1187.71
1187.71
1187.71
1187.71
1187.71
1187.71
1187.71
1187.71
1187.71
1187.71
1187.71
1187.71
1187.71
1187.71
1187.71
1187.71
1187.71
1187.71
1187.71
1187.71
1187.71
1187.71
1187.71
1187.71
1187.71
1187.71
1187.71
1187.71
1187.71
1187.71
1187.71
1187.71
1187.71
1187.71
1187.71
1187.71
1187.71
1187.71
1187.71
1187.71
1187.71
1187.71
1187.71
1187.71
1187.71
1187.71
1187.71
1187.71
1187.71
1187.71
1187.71
1187.71
1187.71
1187.71
1187.71
1187.71
1187.71
1187.71
1187.71
1187.71
1187.71
1187.71
1187.71
1187.71
1187.71
1187.71
1187.71
1187.71
1187.71
1187.71
1187.71
1187.71
1187.71
1187.71
1187.71
1187.71
1187.71
1187.71
1187.71
1187.71
1187.71
1187.71
1187.71
1187.71
1187.71
1187.71
1187.71
1187.71
1187.71
1187.71
1187.71
1187.71
1187.71
1187.71
1187.71
1187.71
1187.71
1187.71
1187.71
1187.71
1187.71
1187.71
1187.71
1187.71
1187.71
1187.71
1187.71
1187.71
1187.71
1187.71
1187.71
1187.71
1187.71
1187.71
1187.71
1187.71
1187.71
1187.71
1187.71
1187.71
1187.71
1187.71
1187.71
1187.71
1187.71
1187.71
1187.71
1187.71
1187.71
1187.71
1187.71
1187.71
1187.71
1187.71
1187.71
1187.71
1187.71
1187.71
1187.71
1187.71
1187.71
1187.71
1187.71
1187.71
1187.71
1187.71
1187.71
1187.71
1187.71
1187.71
1187.71
1187.71
1187.71
1187.71
1187.71
1187.71
1187.71
1187.71
1187.71
1187.71
1187.71
1187.71
1187.71
1187.71
1187.71
1187.71
1187.71
1187.71
1187.71
1187.71
1187.71
1187.71
1187.71
1187.71
1187.71
1187.71
1187.71
1187.71
1187.71
1187.71
1187.71
1187.71
1187.71
1187.71
1187.71
1187.71
1187.71
1187.71
1187.71
1187.71
1187.71
1187.71
1187.71
1187.71
1187.71
1187.71
1187.71
1187.71
1187.71
1187.71
1187.71
1187.71
1187.71
1187.71
1187.71
1187.71
1187.71
1187.71
1187.71
1187.71
1187.71
1187.71
1187.71
1187.71
1187.71
1187.71
1187.71
1187.71
1187.71
1187.71
1187.71
1187.71
1187.71
1187.71
1187.71
1187.71
1187.71
1187.71
1187.71
1187.71
1187.71
1187.71
1187.71
1187.71
1187.71
1187.71
1187.71
1187.71
1187.71
1187.71
1187.71
1187.71
1187.71
1187.71
1187.71
1187.71
1187.71
1187.71
1187.71
1187.71
1187.71
1187.71
1187.71
1187.71
1187.71
1187.71
1187.71
1187.71
1187.71
1187.71
1187.71
1187.71
1187.71
1187.71
1187.71
1187.71
1187.71
1187.71
1187.71
1187.71
1187.71
1187.71
1187.71
1187.71
1187.71
1187.71
1187.71
1187.71
1187.71
1187.71
1187.71
1187.71
1187.71
1187.71
1187.71
1187.71
1187.71
1187.71
1187.71
1187.71
1187.71
1187.71
1187.71
1187.71
1187.71
1187.71
1187.71
1187.71
1187.71
1187.71
1187.71
1187.71
1187.71
1187.71
1187.71
1187.71
1187.71
1187.71
1187.71
1187.71
1187.71
1187.71
1187.71
1187.71
1187.71
1187.71
1187.71
1187.71
1187.71
1187.71
1187.71
1187.71
1187.71
1187.71
1187.71
1187.71
1187.71
1187.71
1187.71
1187.71
1187.71
1187.71
1187.71
1187.71
1187.71
1187.71
1187.71
1187.71
1187.71
1187.71
1187.71
1187.71
1187.71
1187.71
1187.71
1187.71
1187.71
1187.71
1187.71
1187.71
1187.71
1187.71
1187.71
1187.71
1187.71
1187.71
1187.71
1187.71
1187.71
1187.71
1187.71
1187.71
1187.71
1187.71
1187.71
1187.71
1187.71
1187.71
1187.71
1187.71
1187.71
1187.71
1187.71
1187.71
1187.71
1187.71
1187.71
1187.71
1187.71
1187.71
1187.71
1187.71
1187.71
1187.71
1187.71
1187.71
1187.71
1187.71
1187.71
1187.71
1187.71
1187.71
1187.71
1187.71
1187.71
1187.71
1187.71
1187.71
1187.71
1187.71
1187.71
1187.71
1187.71
1187.71
1187.71
1187.71
1187.71
1187.71
1187.71
1187.71
1187.71
1187.71
1187.71
1187.71
1187.71
1187.71
1187.71
1187.71
1187.71
1187.71
1187.71
1187.71
1187.71
1187.71
1187.71
1187.71
1187.71
1187.71
1187.71
1187.71
1187.71
1187.71
1187.71
1187.71
1187.71
1187.71
1187.71
1187.71
1187.71
1187.71
1187.71
1187.71
1187.71
1187.71
1187.71
1187.71
1187.71
1187.71
1187.71
1187.71
1187.71
1187.71
1187.71
1187.71
1187.71
1187.71
1187.71
1187.71
1187.71
1187.71
1187.71
1187.71
1187.71
1187.71
1187.71
1187.71
1187.71
1187.71
1187.71
1187.71
1187.71
1187.71
1187.71
1187.71
1187.71
1187.71
1187.71
1187.71
1187.71
1187.71
1187.71
1187.71
1187.71
1187.71
1187.71
1187.71
1187.71
1187.71
1187.71
1187.71
1187.71
1187.71
1187.71
1187.71
1187.71
1187.71
1187.71
1187.71
1187.71
1187.71
1187.71
1187.71
1187.71
1187.71
1187.71
1187.71
1187.71
1187.71
1187.71
1187.71
1187.71
1187.71
1187.71
1187.71
1187.71
1187.71
1187.71
1187.71
1187.71
1187.71
1187.71
1187.71
1187.71
1187.71
1187.71
1187.71
1187.71
1187.71
1187.71
1187.71
1187.71
1187.71
1187.71
1187.71
1187.71
1187.71
1187.71
1187.71
1187.71
1187.71
1187.71
1187.71
1187.71
1187.71
1187.71
1187.71
1187.71
1187.71
1187.71
1187.71
1187.71
1187.71
1187.71
1187.71
1187.71
1187.71
1187.71
1187.71
1187.71
1187.71
1187.71
1187.71
1187.71
1187.71
1187.71
1187.71
1187.71
1187.71
1187.71
1187.71
1187.71
1187.71
1187.71
1187.71
1187.71
1187.71
1187.71
1187.71
1187.71
1187.71
1187.71
1187.71
1187.71
1187.71
1187.71
1187.71
1187.71
1187.71
1187.71
1187.71
1187.71
1187.71
1187.71
1187.71
1187.71
1187.71
1187.71
1187.71
1187.71
1187.71
1187.71
1187.71
1187.71
1187.71
1187.71
1187.71
1187.71
1187.71
1187.71
1187.71
1187.71
1187.71
1187.71
1187.71
1187.71
1187.71
1187.71
1187.71
1187.71
1187.71
1187.71
1187.71
1187.71
1187.71
1187.71
1187.71
1187.71
1187.71
1187.71
1187.71
1187.71
1187.71
1187.71
1187.71
1187.71
1187.71
1187.71
1187.71
1187.71
1187.71
1187.71
1187.71
1187.71
1187.71
1187.71
1187.71
1187.71
1187.71
1187.71
1187.71
1187.71
1187.71
1187.71
1187.71
1187.71
1187.71
1187.71
1187.71
1187.71
1187.71
1187.71
1187.71
1187.71
1187.71
1187.71
1187.71
1187.71
1187.71
1187.71
1187.71
1187.71
1187.71
1187.71
1187.71
1187.71
1187.71
1187.71
1187.71
1187.71
1187.71
1187.71
1187.71
1187.71
1187.71
1187.71
1187.71
1187.71
1187.71
1187.71
1187.71
1187.71
1187.71
1187.71
1187.71
1187.71
1187.71
1187.71
1187.71
1187.71
1187.71
1187.71
1187.71
1187.71
1187.71
1187.71
1187.71
1187.71
1187.71
1187.71
1187.71
1187.71
1187.71
1187.71
1187.71
1187.71
1187.71
1187.71
1187.71
1187.71
1187.71
1187.71
1187.71
1187.71
1187.71
1187.71
1187.71
1187.71
1187.71
1187.71
1187.71
1187.71
1187.71
1187.71
1187.71
1187.71
1187.71
1187.71
1187.71
1187.71
1187.71
1187.71
1187.71
1187.71
1187.71
1187.71
1187.71
1187.71
1187.71
1187.71
1187.71
1187.71
1187.71
1187.71
1187.71
1187.71
1187.71
1187.71
1187.71
1187.71
1187.71
1187.71
1187.71
1187.71
1187.71
1187.71
1187.71
1187.71
1187.71
1187.71
1187.71
1187.71
1187.71
1187.71
1187.71
1187.71
1187.71
1187.71
1187.71
1187.71
1187.71
1187.71
1187.71
1187.71
1187.71
1187.71
1187.71
1187.71
1187.71
1187.71
1187.71
1187.71
1187.71
1187.71
1187.71
1187.71
1187.71
1187.71
1187.71
1187.71
1187.71
1187.71
1187.71
1187.71
1187.71
1187.71
1187.71
1187.71
1187.71
1187.71
1187.71
1187.71
1187.71
1187.71
1187.71
1187.71
1187.71
1187.71
1187.71
1187.71
1187.71
1187.71
1187.71
1187.71
1187.71
1187.71
1187.71
1187.71
1187.71
1187.71
1187.71
1187.71
1187.71
1187.71
1187.71
1187.71
1187.71
1187.71
1187.71
1187.71
1187.71
1187.71
1187.71
1187.71
1187.71
1187.71
1187.71
1187.71
1187.71
1187.71
1187.71
1187.71
1187.71
1187.71
1187.71
1187.71
1187.71
1187.71
1187.71
1187.71
1187.71
1187.71
1187.71
1187.71
1187.71
1187.71
1187.71
1187.71
1187.71
1187.71
1187.71
1187.71
1187.71
1187.71
1187.71
1187.71
1187.71
1187.71
1187.71
1187.71
1187.71
1187.71
1187.71
1187.71
1187.71
1187.71
1187.71
1187.71
1187.71
1187.71
1187.71
1187.71
1187.71
1187.71
1187.71
1187.71
1187.71
1187.71
1187.71
1187.71
1187.71
1187.71
1187.71
1187.71
1187.71
1187.71
1187.71
1187.71
1187.71
1187.71
1187.71
1187.71
1187.71
1187.71
1187.71
1187.71
1187.71
1187.71
1187.71
1187.71
1187.71
1187.71
1187.71
1187.71
1187.71
1187.71
1187.71
1187.71
1187.71
1187.71
1187.71
1187.71
1187.71
1187.71
1187.71
1187.71
1187.71
1187.71
1187.71
1187.71
1187.71
1187.71
1187.71
1187.71
1187.71
1187.71
1187.71
1187.71
1187.71
1187.71
1187.71
1187.71
1187.71
1187.71
1187.71
1187.71
1187.71
1187.71
1187.71
1187.71
1187.71
1187.71
1187.71
1187.71
1187.71
1187.71
1187.71
1187.71
1187.71
1187.71
1187.71
1187.71
1187.71
1187.71
1187.71
1187.71
1187.71
1187.71
1187.71
1187.71
1187.71
1187.71
1187.71
1187.71
1187.71
1187.71
1187.71
1187.71
1187.71
1187.71
1187.71
1187.71
1187.71
1187.71
1187.71
1187.71
1187.71
1187.71
1187.71
1187.71
1187.71
1187.71
1187.71
1187.71
1187.71
1187.71
1187.71
1187.71
1187.71
1187.71
1187.71
1187.71
1187.71
1187.71
1187.71
1187.71
1187.71
1187.71
1187.71
1187.71
1187.71
1187.71
1187.71
1187.71
1187.71
1187.71
1187.71
1187.71
1187.71
1187.71
1187.71
1187.71
1187.71
1187.71
1187.71
1187.71
1187.71
1187.71
1187.71
1187.71
1187.71
1187.71
1187.71
1187.71
1187.71
1187.71
1187.71
1187.71
1187.71
1187.71
1187.71
1187.71
1187.71
1187.71
1187.71
1187.71
1187.71
1187.71
1187.71
1187.71
1187.71
1187.71
1187.71
1187.71
1187.71
1187.71
1187.71
1187.71
1187.71
1187.71
1187.71
1187.71
1187.71
1187.71
1187.71
1187.71
1187.71
1187.71
1187.71
1187.71
1187.71
1187.71
1187.71
1187.71
1187.71
1187.71
1187.71
1187.71
1187.71
1187.71
1187.71
1187.71
1187.71
1187.71
1187.71
1187.71
1187.71
1187.71
1187.71
1187.71
1187.71
1187.71
1187.71
1187.71
1187.71
1187.71
1187.71
1187.71
1187.71
1187.71
1187.71
1187.71
1187.71
1187.71
1187.71
1187.71
1187.71
1187.71
1187.71
1187.71
1187.71
1187.71
1187.71
1187.71
1187.71
1187.71
1187.71
1187.71
1187.71
1187.71
1187.71
1187.71
1187.71
1187.71
1187.71
1187.71
1187.71
1187.71
1187.71
1187.71
1187.71
1187.71
1187.71
1187.71
1187.71
1187.71
1187.71
1187.71
1187.71
1187.71
1187.71
1187.71
1187.71
1187.71
1187.71
1187.71
1187.71
1187.71
1187.71
1187.71
1187.71
1187.71
1187.71
1187.71
1187.71
1187.71
1187.71
1187.71
1187.71
1187.71
1187.71
1187.71
1187.71
1187.71
1187.71
1187.71
1187.71
1187.71
1187.71
1187.71
1187.71
1187.71
1187.71
1187.71
1187.71
1187.71
1187.71
1187.71
1187.71
1187.71
1187.71
1187.71
1187.71
1187.71
1187.71
1187.71
1187.71
1187.71
1187.71
1187.71
1187.71
1187.71
1187.71
1187.71
1187.71
1187.71
1187.71
1187.71
1187.71
1187.71
1187.71
1187.71
1187.71
1187.71
1187.71
1187.71
1187.71
1187.71
1187.71
1187.71
1187.71
1187.71
1187.71
1187.71
1187.71
1187.71
1187.71
1187.71
1187.71
1187.71
1187.71
1187.71
1187.71
1187.71
1187.71
1187.71
1187.71
1187.71
1187.71
1187.71
1187.71
1187.71
1187.71
1187.71
1187.71
1187.71
1187.71
1187.71
1187.71
1187.71
1187.71
1187.71
1187.71
1187.71
1187.71
1187.71
1187.71
1187.71
1187.71
1187.71
1187.71
1187.71
1187.71
1187.71
1187.71
1187.71
1187.71
1187.71
1187.71
1187.71
1187.71
1187.71
1187.71
1187.71
1187.71
1187.71
1187.71
1187.71
1187.71
1187.71
1187.71
1187.71
1187.71
1187.71
1187.71
1187.71
1187.71
1187.71
1187.71
1187.71
1187.71
1187.71
1187.71
1187.71
1187.71
1187.71
1187.71
1187.71
1187.71
1187.71
1187.71
1187.71
1187.71
1187.71
1187.71
1187.71
1187.71
1187.71
1187.71
1187.71
1187.71
1187.71
1187.71
1187.71
1187.71
1187.71
1187.71
1187.71
1187.71
1187.71
1187.71
1187.71
1187.71
1187.71
1187.71
1187.71
1187.71
1187.71
1187.71
1187.71
1187.71
1187.71
1187.71
1187.71
1187.71
1187.71
1187.71
1187.71
1187.71
1187.71
1187.71
1187.71
1187.71
1187.71
1187.71
1187.71
1187.71
1187.71
1187.71
1187.71
1187.71
1187.71
1187.71
1187.71
1187.71
1187.71
1187.71
1187.71
1187.71
1187.71
1187.71
1187.71
1187.71
1187.71
1187.71
1187.71
1187.71
1187.71
1187.71
1187.71
1187.71
1187.71
1187.71
1187.71
1187.71
1187.71
1187.71
1187.71
1187.71
1187.71
1187.71
1187.71
1187.71
1187.71
1187.71
1187.71
1187.71
1187.71
1187.71
1187.71
1187.71
1187.71
1187.71
1187.71
1187.71
1187.71
1187.71
1187.71
1187.71
1187.71
1187.71
1187.71
1187.71
1187.71
1187.71
1187.71
1187.71
1187.71
1187.71
1187.71
1187.71
1187.71
1187.71
1187.71
1187.71
1187.71
1187.71
1187.71
1187.71
1187.71
1187.71
1187.71
1187.71
1187.71
1187.71
1187.71
1187.71
1187.71
1187.71
1187.71
1187.71
1187.71
1187.71
1187.71
1187.71
1187.71
1187.71
1187.71
1187.71
1187.71
1187.71
1187.71
1187.71
1187.71
1187.71
1187.71
1187.71
1187.71
1187.71
1187.71
1187.71
1187.71
1187.71
1187.71
1187.71
1187.71
1187.71
1187.71
1187.71
1187.71
1187.71
1187.71
1187.71
1187.71
1187.71
1187.71
1187.71
1187.71
1187.71
1187.71
1187.71
1187.71
1187.71
1187.71
1187.71
1187.71
1187.71
1187.71
1187.71
1187.71
1187.71
1187.71
1187.71
1187.71
1187.71
1187.71
1187.71
1187.71
1187.71
1187.71
1187.71
1187.71
1187.71
1187.71
1187.71
1187.71
1187.71
1187.71
1187.71
1187.71
1187.71
1187.71
1187.71
1187.71
1187.71
1187.71
1187.71
1187.71
1187.71
1187.71
1187.71
1187.71
1187.71
1187.71
1187.71
1187.71
1187.71
1187.71
1187.71
1187.71
1187.71
1187.71
1187.71
1187.71
1187.71
1187.71
1187.71
1187.71
1187.71
1187.71
1187.71
1187.71
1187.71
1187.71
1187.71
1187.71
1187.71
1187.71
1187.71
1187.71
1187.71
1187.71
1187.71
1187.71
1187.71
1187.71
1187.71
1187.71
1187.71
1187.71
1187.71
1187.71
1187.71
1187.71
1187.71
1187.71
1187.71
1187.71
1187.71
1187.71
1187.71
1187.71
1187.71
1187.71
1187.71
1187.71
1187.71
1187.71
1187.71
1187.71
1187.71
1187.71
1187.71
1187.71
1187.71
1187.71
1187.71
1187.71
1187.71
1187.71
1187.71
1187.71
1187.71
1187.71
1187.71
1187.71
1187.71
1187.71
1187.71
1187.71
1187.71
1187.71
1187.71
1187.71
1187.71
1187.71
1187.71
1187.71
1187.71
1187.71
1187.71
1187.71
1187.71
1187.71
1187.71
1187.71
1187.71
1187.71
1187.71
1187.71
1187.71
1187.71
1187.71
1187.71
1187.71
1187.71
1187.71
1187.71
1187.71
1187.71
1187.71
1187.71
1187.71
1187.71
1187.71
1187.71
1187.71
1187.71
1187.71
1187.71
1187.71
1187.71
1187.71
1187.71
1187.71
1187.71
1187.71
1187.71
1187.71
1187.71
1187.71
1187.71
1187.71
1187.71
1187.71
1187.71
1187.71
1187.71
1187.71
1187.71
1187.71
1187.71
1187.71
1187.71
1187.71
1187.71
1187.71
1187.71
1187.71
1187.71
1187.71
1187.71
1187.71
1187.71
1187.71
1187.71
1187.71
1187.71
1187.71
1187.71
1187.71
1187.71
1187.71
1187.71
1187.71
1187.71
1187.71
1187.71
1187.71
1187.71
1187.71
1187.71
1187.71
1187.71
1187.71
1187.71
1187.71
1187.71
1187.71
1187.71
1187.71
1187.71
1187.71
1187.71
1187.71
1187.71
1187.71
1187.71
1187.71
1187.71
1187.71
1187.71
1187.71
1187.71
1187.71
1187.71
1187.71
1187.71
1187.71
1187.71
1187.71
1187.71
1187.71
1187.71
1187.71
1187.71
1187.71
1187.71
1187.71
1187.71
1187.71
1187.71
1187.71
1187.71
1187.71
1187.71
1187.71
1187.71
1187.71
1187.71
1187.71
1187.71
1187.71
1187.71
1187.71
1187.71
1187.71
1187.71
1187.71
1187.71
1187.71
1187.71
1187.71
1187.71
1187.71
1187.71
1187.71
1187.71
1187.71
1187.71
1187.71
1187.71
1187.71
1187.71
1187.71
1187.71
1187.71
1187.71
1187.71
1187.71
1187.71
1187.71
1187.71
1187.71
1187.71
1187.71
1187.71
1187.71
1187.71
1187.71
1187.71
1187.71
1187.71
1187.71
1187.71
1187.71
1187.71
1187.71
1187.71
1187.71
1187.71
1187.71
1187.71
1187.71
1187.71
1187.71
1187.71
1187.71
1187.71
1187.71
1187.71
1187.71
1187.71
1187.71
1187.71
1187.71
1187.71
1187.71
1187.71
1187.71
1187.71
1187.71
1187.71
1187.71
1187.71
1187.71
1187.71
1187.71
1187.71
1187.71
1187.71
1187.71
1187.71
1187.71
1187.71
1187.71
1187.71
1187.71
1187.71
1187.71
1187.71
1187.71
1187.71
1187.71
1187.71
1187.71
1187.71
1187.71
1187.71
1187.71
1187.71
1187.71
1187.71
1187.71
1187.71
1187.71
1187.71
1187.71
1187.71
1187.71
1187.71
1187.71
1187.71
1187.71
1187.71
1187.71
1187.71
1187.71
1187.71
1187.71
1187.71
1187.71
1187.71
1187.71
1187.71
1187.71
1187.71
1187.71
1187.71
1187.71
1187.71
1187.71
1187.71
1187.71
1187.71
1187.71
1187.71
1187.71
1187.71
1187.71
1187.71
1187.71
1187.71
1187.71
1187.71
1187.71
1187.71
1187.71
1187.71
1187.71
1187.71
1187.71
1187.71
1187.71
1187.71
1187.71
1187.71
1187.71
1187.71
1187.71
1187.71
1187.71
1187.71
1187.71
1187.71
1187.71
1187.71
1187.71
1187.71
1187.71
1187.71
1187.71
1187.71
1187.71
1187.71
1187.71
1187.71
1187.71
1187.71
1187.71
1187.71
1187.71
1187.71
1187.71
1187.71
1187.71
1187.71
1187.71
1187.71
1187.71
1187.71
1187.71
1187.71
1187.71
1187.71
1187.71
1187.71
1187.71
1187.71
1187.71
1187.71
1187.71
1187.71
1187.71
1187.71
1187.71
1187.71
1187.71
1187.71
1187.71
1187.71
1187.71
1187.71
1187.71
1187.71
1187.71
1187.71
1187.71
1187.71
1187.71
1187.71
1187.71
1187.71
1187.71
1187.71
1187.71
1187.71
1187.71
1187.71
1187.71
1187.71
1187.71
1187.71
1187.71
1187.71
1187.71
1187.71
1187.71
1187.71
1187.71
1187.71
1187.71
1187.71
1187.71
1187.71
1187.71
1187.71
1187.71
1187.71
1187.71
1187.71
1187.71
1187.71
1187.71
1187.71
1187.71
1187.71
1187.71
1187.71
1187.71
1187.71
1187.71
1187.71
1187.71
1187.71
1187.71
1187.71
1187.71
1187.71
1187.71
1187.71
1187.71
1187.71
1187.71
1187.71
1187.71
1187.71
1187.71
1187.71
1187.71
1187.71
1187.71
1187.71
1187.71
1187.71
1187.71
1187.71
1187.71
1187.71
1187.71
1187.71
1187.71
1187.71
1187.71
1187.71
1187.71
1187.71
1187.71
1187.71
1187.71
1187.71
1187.71
1187.71
1187.71
1187.71
1187.71
1187.71
1187.71
1187.71
1187.71
1187.71
1187.71
1187.71
1187.71
1187.71
1187.71
1187.71
1187.71
1187.71
1187.71
1187.71
1187.71
1187.71
1187.71
1187.71
1187.71
1187.71
1187.71
1187.71
1187.71
1187.71
1187.71
1187.71
1187.71
1187.71
1187.71
1187.71
1187.71
1187.71
1187.71
1187.71
1187.71
1187.71
1187.71
1187.71
1187.71
1187.71
1187.71
1187.71
1187.71
1187.71
1187.71
1187.71
1187.71
1187.71
1187.71
1187.71
1187.71
1187.71
1187.71
1187.71
1187.71
1187.71
1187.71
1187.71
1187.71
1187.71
1187.71
1187.71
1187.71
1187.71
1187.71
1187.71
1187.71
1187.71
1187.71
1187.71
1187.71
1187.71
1187.71
1187.71
1187.71
1187.71
1187.71
1187.71
1187.71
1187.71
1187.71
1187.71
1187.71
1187.71
1187.71
1187.71
1187.71
1187.71
1187.71
1187.71
1187.71
1187.71
1187.71
1187.71
1187.71
1187.71
1187.71
1187.71
1187.71
1187.71
1187.71
1187.71
1187.71
1187.71
1187.71
1187.71
1187.71
1187.71
1187.71
1187.71
1187.71
1187.71
1187.71
1187.71
1187.71
1187.71
1187.71
1187.71
1187.71
1187.71
1187.71
1187.71
1187.71
1187.71
1187.71
1187.71
1187.71
1187.71
1187.71
1187.71
1187.71
1187.71
1187.71
1187.71
1187.71
1187.71
1187.71
1187.71
1187.71
1187.71
1187.71
1187.71
1187.71
1187.71
1187.71
1187.71
1187.71
1187.71
1187.71
1187.71
1187.71
1187.71
1187.71
1187.71
1187.71
1187.71
1187.71
1187.71
1187.71
1187.71
1187.71
1187.71
1187.71
1187.71
1187.71
1187.71
1187.71
1187.71
1187.71
1187.71
1187.71
1187.71
1187.71
1187.71
1187.71
1187.71
1187.71
1187.71
1187.71
1187.71
1187.71
1187.71
1187.71
1187.71
1187.71
1187.71
1187.71
1187.71
1187.71
1187.71
1187.71
1187.71
1187.71
1187.71
1187.71
1187.71
1187.71
1187.71
1187.71
1187.71
1187.71
1187.71
1187.71
1187.71
1187.71
1187.71
1187.71
1187.71
1187.71
1187.71
1187.71
1187.71
1187.71
1187.71
1187.71
1187.71
1187.71
1187.71
1187.71
1187.71
1187.71
1187.71
1187.71
1187.71
1187.71
1187.71
1187.71
1187.71
1187.71
1187.71
1187.71
1187.71
1187.71
1187.71
1187.71
1187.71
1187.71
1187.71
1187.71
1187.71
1187.71
1187.71
1187.71
1187.71
1187.71
1187.71
1187.71
1187.71
1187.71
1187.71
1187.71
1187.71
1187.71
1187.71
1187.71
1187.71
1187.71
1187.71
1187.71
7.4009e+08
7.4009e+08
7.4009e+08
7.4009e+08
7.4009e+08
7.4009e+08
7.4009e+08
7.4009e+08
1187.71
1187.71
1187.71
1187.71
1187.71
1187.71
1187.71
1187.71
1187.71
1187.71
1187.71
1187.71
1187.71
1187.71
1187.71
1187.71
1187.71
1187.71
1187.71
1187.71
1187.71
1187.71
1187.71
1187.71
1187.71
1187.71
1187.71
1187.71
1187.71
1187.71
1187.71
1187.71
1187.71
1187.71
1187.71
1187.71
1187.71
1187.71
1187.71
1187.71
1187.71
1187.71
1187.71
1187.71
1187.71
1187.71
1187.71
1187.71
1187.71
1187.71
1187.71
1187.71
1187.71
1187.71
1187.71
1187.71
1187.71
1187.71
1187.71
1187.71
1187.71
1187.71
1187.71
1187.71
1187.71
1187.71
1187.71
1187.71
1187.71
1187.71
1187.71
1187.71
1187.71
1187.71
1187.71
1187.71
1187.71
1187.71
1187.71
1187.71
1187.71
1187.71
1187.71
1187.71
1187.71
1187.71
1187.71
1187.71
1187.71
1187.71
1187.71
1187.71
1187.71
1187.71
1187.71
1187.71
1187.71
1187.71
1187.71
1187.71
1187.71
1187.71
1187.71
1187.71
1187.71
1187.71
1187.71
1187.71
1187.71
1187.71
1187.71
1187.71
1187.71
1187.71
1187.71
1187.71
1187.71
1187.71
1187.71
1187.71
1187.71
1187.71
1187.71
1187.71
1187.71
1187.71
1187.71
1187.71
1187.71
1187.71
1187.71
1187.71
1187.71
1187.71
1187.71
1187.71
1187.71
1187.71
1187.71
1187.71
1187.71
1187.71
1187.71
1187.71
1187.71
1187.71
1187.71
1187.71
1187.71
1187.71
1187.71
1187.71
1187.71
1187.71
1187.71
1187.71
1187.71
1187.71
1187.71
1187.71
1187.71
1187.71
1187.71
1187.71
1187.71
1187.71
1187.71
1187.71
1187.71
1187.71
1187.71
1187.71
1187.71
1187.71
1187.71
1187.71
1187.71
1187.71
1187.71
1187.71
1187.71
1187.71
1187.71
1187.71
1187.71
1187.71
1187.71
1187.71
1187.71
1187.71
1187.71
1187.71
1187.71
1187.71
1187.71
1187.71
1187.71
1187.71
1187.71
1187.71
1187.71
1187.71
1187.71
1187.71
1187.71
1187.71
1187.71
1187.71
1187.71
1187.71
1187.71
1187.71
1187.71
1187.71
1187.71
1187.71
1187.71
1187.71
1187.71
1187.71
1187.71
1187.71
1187.71
1187.71
1187.71
1187.71
1187.71
1187.71
1187.71
1187.71
1187.71
1187.71
1187.71
1187.71
1187.71
1187.71
1187.71
1187.71
1187.71
1187.71
1187.71
1187.71
1187.71
1187.71
1187.71
1187.71
1187.71
1187.71
1187.71
1187.71
1187.71
1187.71
1187.71
1187.71
1187.71
1187.71
1187.71
1187.71
1187.71
1187.71
1187.71
1187.71
1187.71
1187.71
1187.71
1187.71
1187.71
1187.71
1187.71
1187.71
1187.71
1187.71
1187.71
1187.71
1187.71
1187.71
1187.71
1187.71
1187.71
1187.71
1187.71
1187.71
1187.71
1187.71
1187.71
1187.71
1187.71
1187.71
1187.71
1187.71
1187.71
1187.71
1187.71
1187.71
1187.71
1187.71
1187.71
1187.71
1187.71
1187.71
1187.71
1187.71
1187.71
1187.71
1187.71
1187.71
1187.71
1187.71
1187.71
1187.71
1187.71
1187.71
1187.71
1187.71
1187.71
1187.71
1187.71
1187.71
1187.71
1187.71
1187.71
1187.71
1187.71
1187.71
1187.71
1187.71
1187.71
1187.71
1187.71
1187.71
1187.71
1187.71
1187.71
1187.71
1187.71
1187.71
1187.71
1187.71
1187.71
1187.71
1187.71
1187.71
1187.71
1187.71
1187.71
1187.71
1187.71
1187.71
1187.71
1187.71
1187.71
1187.71
1187.71
1187.71
1187.71
1187.71
1187.71
1187.71
1187.71
1187.71
1187.71
1187.71
1187.71
1187.71
1187.71
1187.71
1187.71
1187.71
1187.71
1187.71
1187.71
1187.71
1187.71
1187.71
1187.71
1187.71
1187.71
1187.71
1187.71
1187.71
1187.71
1187.71
1187.71
1187.71
1187.71
1187.71
1187.71
1187.71
1187.71
1187.71
1187.71
1187.71
1187.71
1187.71
1187.71
1187.71
1187.71
1187.71
1187.71
1187.71
1187.71
1187.71
1187.71
1187.71
1187.71
1187.71
1187.71
1187.71
1187.71
1187.71
1187.71
1187.71
1187.71
1187.71
1187.71
1187.71
1187.71
1187.71
1187.71
1187.71
1187.71
1187.71
1187.71
1187.71
1187.71
1187.71
1187.71
1187.71
1187.71
1187.71
1187.71
1187.71
1187.71
1187.71
1187.71
1187.71
1187.71
1187.71
1187.71
1187.71
1187.71
1187.71
1187.71
1187.71
1187.71
1187.71
1187.71
1187.71
1187.71
1187.71
1187.71
1187.71
1187.71
1187.71
1187.71
1187.71
1187.71
1187.71
1187.71
1187.71
1187.71
1187.71
1187.71
1187.71
1187.71
1187.71
1187.71
1187.71
1187.71
1187.71
1187.71
1187.71
1187.71
1187.71
1187.71
1187.71
1187.71
1187.71
1187.71
1187.71
1187.71
1187.71
1187.71
1187.71
1187.71
1187.71
1187.71
1187.71
1187.71
1187.71
1187.71
1187.71
1187.71
1187.71
1187.71
1187.71
1187.71
1187.71
1187.71
1187.71
1187.71
1187.71
1187.71
1187.71
1187.71
1187.71
1187.71
1187.71
1187.71
1187.71
1187.71
1187.71
1187.71
1187.71
1187.71
1187.71
1187.71
1187.71
1187.71
1187.71
1187.71
1187.71
1187.71
1187.71
1187.71
1187.71
1187.71
1187.71
1187.71
1187.71
1187.71
1187.71
1187.71
1187.71
1187.71
1187.71
1187.71
1187.71
1187.71
1187.71
1187.71
1187.71
1187.71
1187.71
1187.71
1187.71
1187.71
1187.71
1187.71
1187.71
1187.71
1187.71
1187.71
1187.71
1187.71
1187.71
1187.71
1187.71
1187.71
1187.71
1187.71
1187.71
1187.71
1187.71
1187.71
1187.71
1187.71
1187.71
1187.71
1187.71
1187.71
1187.71
1187.71
1187.71
1187.71
1187.71
1187.71
1187.71
1187.71
1187.71
1187.71
1187.71
1187.71
1187.71
1187.71
1187.71
1187.71
1187.71
1187.71
1187.71
1187.71
1187.71
1187.71
1187.71
1187.71
1187.71
1187.71
1187.71
1187.71
1187.71
1187.71
1187.71
1187.71
1187.71
1187.71
1187.71
1187.71
1187.71
1187.71
1187.71
1187.71
1187.71
1187.71
1187.71
1187.71
1187.71
1187.71
1187.71
1187.71
1187.71
1187.71
1187.71
1187.71
1187.71
1187.71
1187.71
1187.71
1187.71
1187.71
7.4009e+08
1187.71
1187.71
1187.71
1187.71
1187.71
1187.71
1187.71
1187.71
1187.71
1187.71
1187.71
1187.71
1187.71
1187.71
1187.71
1187.71
1187.71
1187.71
1187.71
1187.71
1187.71
1187.71
1187.71
1187.71
1187.71
1187.71
1187.71
1187.71
1187.71
1187.71
1187.71
1187.71
1187.71
1187.71
1187.71
1187.71
1187.71
1187.71
1187.71
1187.71
1187.71
1187.71
1187.71
1187.71
1187.71
1187.71
1187.71
1187.71
1187.71
1187.71
1187.71
1187.71
1187.71
1187.71
1187.71
1187.71
1187.71
1187.71
1187.71
1187.71
1187.71
1187.71
1187.71
1187.71
1187.71
1187.71
1187.71
1187.71
1187.71
1187.71
1187.71
1187.71
1187.71
1187.71
1187.71
1187.71
1187.71
1187.71
1187.71
1187.71
1187.71
1187.71
1187.71
1187.71
1187.71
1187.71
1187.71
1187.71
1187.71
1187.71
1187.71
1187.71
1187.71
1187.71
1187.71
1187.71
1187.71
1187.71
1187.71
1187.71
1187.71
1187.71
1187.71
1187.71
1187.71
1187.71
1187.71
1187.71
1187.71
1187.71
1187.71
1187.71
1187.71
1187.71
1187.71
1187.71
1187.71
1187.71
1187.71
1187.71
1187.71
1187.71
1187.71
1187.71
1187.71
1187.71
1187.71
1187.71
1187.71
1187.71
1187.71
1187.71
1187.71
1187.71
1187.71
1187.71
1187.71
1187.71
1187.71
1187.71
1187.71
1187.71
1187.71
1187.71
1187.71
1187.71
1187.71
1187.71
1187.71
1187.71
1187.71
1187.71
1187.71
1187.71
1187.71
1187.71
1187.71
1187.71
1187.71
1187.71
1187.71
1187.71
1187.71
1187.71
1187.71
1187.71
1187.71
1187.71
1187.71
1187.71
1187.71
1187.71
1187.71
1187.71
1187.71
1187.71
1187.71
1187.71
1187.71
1187.71
1187.71
1187.71
1187.71
1187.71
1187.71
1187.71
1187.71
1187.71
1187.71
1187.71
1187.71
1187.71
1187.71
1187.71
1187.71
1187.71
7.4009e+08
7.4009e+08
7.4009e+08
7.4009e+08
7.4009e+08
7.4009e+08
7.4009e+08
1187.71
1187.71
1187.71
1187.71
1187.71
1187.71
1187.71
1187.71
1187.71
1187.71
1187.71
1187.71
1187.71
1187.71
1187.71
1187.71
1187.71
1187.71
1187.71
1187.71
1187.71
1187.71
1187.71
1187.71
1187.71
1187.71
1187.71
1187.71
1187.71
1187.71
1187.71
1187.71
1187.71
1187.71
1187.71
1187.71
1187.71
1187.71
1187.71
1187.71
1187.71
1187.71
1187.71
1187.71
1187.71
1187.71
1187.71
1187.71
1187.71
1187.71
1187.71
1187.71
1187.71
1187.71
1187.71
1187.71
1187.71
1187.71
1187.71
1187.71
1187.71
1187.71
1187.71
1187.71
1187.71
1187.71
1187.71
1187.71
1187.71
1187.71
1187.71
1187.71
1187.71
1187.71
1187.71
1187.71
1187.71
1187.71
1187.71
1187.71
1187.71
1187.71
1187.71
1187.71
1187.71
1187.71
1187.71
1187.71
1187.71
1187.71
1187.71
1187.71
1187.71
7.4009e+08
1187.71
7.4009e+08
7.4009e+08
7.4009e+08
7.4009e+08
7.4009e+08
7.4009e+08
7.4009e+08
7.4009e+08
7.4009e+08
1187.71
1187.71
1187.71
1187.71
1187.71
1187.71
1187.71
1187.71
1187.71
1187.71
1187.71
1187.71
1187.71
1187.71
1187.71
1187.71
1187.71
1187.71
1187.71
1187.71
1187.71
1187.71
1187.71
1187.71
1187.71
1187.71
1187.71
1187.71
1187.71
1187.71
1187.71
1187.71
1187.71
1187.71
1187.71
1187.71
1187.71
1187.71
1187.71
1187.71
1187.71
1187.71
1187.71
1187.71
1187.71
1187.71
1187.71
1187.71
1187.71
1187.71
1187.71
1187.71
1187.71
1187.71
1187.71
1187.71
1187.71
1187.71
1187.71
1187.71
1187.71
1187.71
1187.71
1187.71
1187.71
1187.71
1187.71
1187.71
1187.71
1187.71
1187.71
1187.71
1187.71
1187.71
1187.71
1187.71
1187.71
1187.71
1187.71
1187.71
1187.71
1187.71
1187.71
1187.71
1187.71
1187.71
1187.71
1187.71
1187.71
1187.71
1187.71
1187.71
1187.71
1187.71
1187.71
1187.71
1187.71
1187.71
1187.71
1187.71
1187.71
1187.71
1187.71
1187.71
1187.71
1187.71
1187.71
1187.71
1187.71
1187.71
1187.71
1187.71
1187.71
1187.71
1187.71
1187.71
1187.71
1187.71
1187.71
1187.71
1187.71
1187.71
1187.71
1187.71
1187.71
1187.71
1187.71
1187.71
1187.71
1187.71
1187.71
1187.71
1187.71
1187.71
1187.71
1187.71
1187.71
1187.71
1187.71
1187.71
1187.71
1187.71
1187.71
1187.71
1187.71
1187.71
1187.71
1187.71
1187.71
1187.71
1187.71
1187.71
1187.71
1187.71
1187.71
1187.71
1187.71
1187.71
1187.71
1187.71
1187.71
1187.71
1187.71
1187.71
1187.71
1187.71
1187.71
1187.71
1187.71
1187.71
1187.71
1187.71
1187.71
1187.71
1187.71
1187.71
1187.71
1187.71
1187.71
1187.71
1187.71
1187.71
1187.71
1187.71
1187.71
1187.71
1187.71
1187.71
1187.71
1187.71
1187.71
1187.71
1187.71
1187.71
1187.71
1187.71
1187.71
1187.71
1187.71
1187.71
1187.71
1187.71
1187.71
1187.71
1187.71
1187.71
1187.71
1187.71
1187.71
1187.71
1187.71
1187.71
1187.71
1187.71
1187.71
1187.71
1187.71
1187.71
1187.71
1187.71
1187.71
1187.71
1187.71
1187.71
1187.71
1187.71
1187.71
1187.71
1187.71
1187.71
1187.71
1187.71
1187.71
1187.71
1187.71
1187.71
1187.71
1187.71
1187.71
1187.71
1187.71
1187.71
1187.71
1187.71
1187.71
1187.71
1187.71
1187.71
1187.71
1187.71
1187.71
1187.71
1187.71
1187.71
1187.71
1187.71
1187.71
1187.71
1187.71
1187.71
1187.71
1187.71
1187.71
1187.71
1187.71
1187.71
1187.71
1187.71
1187.71
1187.71
1187.71
1187.71
1187.71
1187.71
1187.71
1187.71
1187.71
1187.71
1187.71
1187.71
1187.71
1187.71
1187.71
1187.71
1187.71
1187.71
1187.71
1187.71
1187.71
1187.71
1187.71
1187.71
1187.71
1187.71
1187.71
1187.71
1187.71
1187.71
1187.71
1187.71
1187.71
1187.71
1187.71
1187.71
1187.71
1187.71
1187.71
1187.71
1187.71
1187.71
1187.71
1187.71
1187.71
1187.71
1187.71
1187.71
1187.71
1187.71
1187.71
1187.71
1187.71
1187.71
1187.71
1187.71
1187.71
1187.71
1187.71
1187.71
1187.71
1187.71
1187.71
1187.71
1187.71
1187.71
1187.71
1187.71
1187.71
1187.71
1187.71
1187.71
1187.71
1187.71
1187.71
1187.71
1187.71
1187.71
1187.71
1187.71
1187.71
1187.71
1187.71
1187.71
1187.71
1187.71
1187.71
1187.71
1187.71
1187.71
1187.71
1187.71
1187.71
1187.71
1187.71
1187.71
1187.71
1187.71
1187.71
1187.71
1187.71
1187.71
1187.71
1187.71
1187.71
1187.71
1187.71
1187.71
1187.71
1187.71
1187.71
1187.71
1187.71
1187.71
1187.71
1187.71
1187.71
1187.71
1187.71
1187.71
1187.71
1187.71
1187.71
1187.71
1187.71
1187.71
1187.71
1187.71
1187.71
1187.71
1187.71
1187.71
1187.71
1187.71
1187.71
1187.71
1187.71
1187.71
1187.71
1187.71
1187.71
1187.71
1187.71
1187.71
1187.71
1187.71
1187.71
1187.71
1187.71
1187.71
1187.71
1187.71
1187.71
1187.71
1187.71
1187.71
1187.71
1187.71
1187.71
1187.71
1187.71
1187.71
1187.71
1187.71
1187.71
1187.71
1187.71
1187.71
1187.71
1187.71
1187.71
1187.71
1187.71
1187.71
1187.71
1187.71
1187.71
1187.71
1187.71
1187.71
1187.71
1187.71
1187.71
1187.71
1187.71
1187.71
1187.71
1187.71
1187.71
1187.71
1187.71
1187.71
1187.71
1187.71
1187.71
1187.71
1187.71
1187.71
1187.71
1187.71
1187.71
1187.71
1187.71
1187.71
1187.71
1187.71
1187.71
1187.71
1187.71
1187.71
1187.71
1187.71
1187.71
1187.71
1187.71
1187.71
1187.71
1187.71
1187.71
1187.71
1187.71
1187.71
1187.71
1187.71
1187.71
1187.71
1187.71
1187.71
1187.71
1187.71
1187.71
1187.71
1187.71
1187.71
1187.71
1187.71
1187.71
1187.71
1187.71
1187.71
1187.71
1187.71
1187.71
1187.71
1187.71
1187.71
1187.71
1187.71
1187.71
1187.71
1187.71
1187.71
1187.71
1187.71
1187.71
1187.71
1187.71
1187.71
1187.71
1187.71
1187.71
1187.71
1187.71
1187.71
1187.71
1187.71
1187.71
1187.71
1187.71
1187.71
1187.71
1187.71
1187.71
1187.71
1187.71
1187.71
1187.71
1187.71
1187.71
1187.71
1187.71
1187.71
1187.71
1187.71
1187.71
1187.71
1187.71
1187.71
1187.71
1187.71
1187.71
1187.71
1187.71
1187.71
1187.71
1187.71
1187.71
1187.71
1187.71
1187.71
1187.71
1187.71
1187.71
1187.71
1187.71
1187.71
1187.71
1187.71
1187.71
1187.71
1187.71
1187.71
1187.71
1187.71
1187.71
1187.71
1187.71
1187.71
1187.71
1187.71
1187.71
1187.71
1187.71
1187.71
1187.71
1187.71
1187.71
1187.71
1187.71
1187.71
1187.71
1187.71
1187.71
1187.71
1187.71
1187.71
1187.71
1187.71
1187.71
1187.71
1187.71
1187.71
1187.71
1187.71
1187.71
1187.71
1187.71
1187.71
1187.71
1187.71
1187.71
1187.71
1187.71
1187.71
1187.71
7.4009e+08
1187.71
1187.71
1187.71
1187.71
1187.71
1187.71
1187.71
1187.71
1187.71
1187.71
1187.71
1187.71
1187.71
1187.71
1187.71
1187.71
1187.71
1187.71
1187.71
7.4009e+08
1187.71
1187.71
1187.71
1187.71
1187.71
1187.71
1187.71
1187.71
1187.71
1187.71
1187.71
1187.71
1187.71
1187.71
1187.71
1187.71
1187.71
1187.71
1187.71
1187.71
1187.71
1187.71
1187.71
1187.71
1187.71
1187.71
1187.71
1187.71
1187.71
1187.71
1187.71
1187.71
1187.71
1187.71
1187.71
1187.71
1187.71
1187.71
1187.71
1187.71
1187.71
1187.71
1187.71
1187.71
1187.71
1187.71
1187.71
1187.71
1187.71
1187.71
1187.71
1187.71
1187.71
1187.71
1187.71
1187.71
1187.71
1187.71
1187.71
1187.71
1187.71
1187.71
1187.71
1187.71
1187.71
1187.71
1187.71
1187.71
1187.71
1187.71
1187.71
1187.71
1187.71
1187.71
1187.71
1187.71
1187.71
1187.71
1187.71
1187.71
1187.71
1187.71
1187.71
1187.71
1187.71
1187.71
1187.71
1187.71
1187.71
1187.71
1187.71
1187.71
1187.71
1187.71
1187.71
1187.71
1187.71
1187.71
1187.71
1187.71
1187.71
1187.71
1187.71
1187.71
1187.71
1187.71
1187.71
1187.71
1187.71
1187.71
1187.71
1187.71
1187.71
1187.71
1187.71
1187.71
1187.71
1187.71
1187.71
1187.71
1187.71
1187.71
1187.71
1187.71
1187.71
1187.71
1187.71
1187.71
1187.71
1187.71
1187.71
1187.71
1187.71
1187.71
1187.71
1187.71
1187.71
1187.71
1187.71
1187.71
1187.71
1187.71
1187.71
1187.71
1187.71
1187.71
1187.71
1187.71
1187.71
1187.71
1187.71
1187.71
1187.71
1187.71
1187.71
1187.71
1187.71
1187.71
1187.71
1187.71
1187.71
1187.71
1187.71
1187.71
1187.71
1187.71
1187.71
1187.71
1187.71
1187.71
1187.71
1187.71
1187.71
1187.71
1187.71
1187.71
1187.71
1187.71
1187.71
1187.71
1187.71
1187.71
1187.71
1187.71
1187.71
1187.71
1187.71
1187.71
1187.71
1187.71
1187.71
1187.71
1187.71
1187.71
1187.71
1187.71
1187.71
1187.71
1187.71
1187.71
1187.71
1187.71
1187.71
1187.71
1187.71
1187.71
1187.71
1187.71
1187.71
1187.71
1187.71
1187.71
1187.71
1187.71
1187.71
1187.71
1187.71
1187.71
1187.71
1187.71
1187.71
1187.71
1187.71
1187.71
1187.71
1187.71
1187.71
1187.71
1187.71
1187.71
1187.71
1187.71
1187.71
1187.71
1187.71
1187.71
1187.71
1187.71
1187.71
1187.71
1187.71
1187.71
1187.71
1187.71
1187.71
1187.71
1187.71
1187.71
1187.71
1187.71
1187.71
1187.71
1187.71
1187.71
1187.71
1187.71
1187.71
1187.71
1187.71
1187.71
1187.71
1187.71
1187.71
1187.71
1187.71
1187.71
7.4009e+08
1187.71
1187.71
1187.71
1187.71
1187.71
1187.71
1187.71
1187.71
1187.71
1187.71
1187.71
1187.71
1187.71
1187.71
1187.71
1187.71
1187.71
1187.71
1187.71
1187.71
1187.71
7.4009e+08
1187.71
1187.71
1187.71
1187.71
1187.71
1187.71
7.4009e+08
7.4009e+08
7.4009e+08
7.4009e+08
7.4009e+08
1187.71
1187.71
7.4009e+08
1187.71
1187.71
1187.71
1187.71
1187.71
1187.71
1187.71
1187.71
1187.71
1187.71
1187.71
1187.71
1187.71
1187.71
1187.71
1187.71
1187.71
1187.71
1187.71
1187.71
1187.71
1187.71
1187.71
1187.71
1187.71
1187.71
1187.71
1187.71
1187.71
1187.71
1187.71
1187.71
1187.71
1187.71
1187.71
1187.71
1187.71
1187.71
1187.71
7.4009e+08
1187.71
1187.71
1187.71
1187.71
1187.71
1187.71
1187.71
1187.71
1187.71
1187.71
1187.71
1187.71
1187.71
1187.71
1187.71
1187.71
1187.71
1187.71
1187.71
1187.71
1187.71
1187.71
1187.71
1187.71
1187.71
1187.71
1187.71
1187.71
1187.71
1187.71
1187.71
1187.71
1187.71
1187.71
1187.71
1187.71
1187.71
1187.71
1187.71
1187.71
1187.71
1187.71
1187.71
1187.71
1187.71
1187.71
1187.71
1187.71
1187.71
1187.71
1187.71
1187.71
1187.71
1187.71
1187.71
1187.71
1187.71
1187.71
1187.71
1187.71
1187.71
1187.71
1187.71
1187.71
1187.71
1187.71
1187.71
1187.71
1187.71
1187.71
1187.71
1187.71
1187.71
1187.71
1187.71
1187.71
1187.71
1187.71
1187.71
1187.71
1187.71
1187.71
1187.71
1187.71
1187.71
1187.71
1187.71
1187.71
1187.71
1187.71
1187.71
1187.71
1187.71
1187.71
1187.71
1187.71
1187.71
1187.71
1187.71
1187.71
1187.71
1187.71
1187.71
1187.71
7.4009e+08
1187.71
1187.71
1187.71
1187.71
1187.71
1187.71
1187.71
1187.71
1187.71
1187.71
1187.71
1187.71
1187.71
1187.71
1187.71
1187.71
1187.71
1187.71
1187.71
1187.71
1187.71
1187.71
1187.71
1187.71
1187.71
1187.71
1187.71
1187.71
1187.71
1187.71
1187.71
1187.71
1187.71
1187.71
1187.71
1187.71
1187.71
1187.71
1187.71
1187.71
1187.71
1187.71
1187.71
1187.71
1187.71
1187.71
1187.71
1187.71
1187.71
1187.71
1187.71
1187.71
1187.71
1187.71
1187.71
1187.71
1187.71
1187.71
1187.71
1187.71
1187.71
1187.71
1187.71
1187.71
1187.71
1187.71
1187.71
1187.71
1187.71
1187.71
1187.71
1187.71
1187.71
1187.71
1187.71
1187.71
1187.71
1187.71
1187.71
1187.71
1187.71
1187.71
1187.71
1187.71
1187.71
1187.71
1187.71
1187.71
1187.71
1187.71
1187.71
1187.71
1187.71
1187.71
1187.71
1187.71
1187.71
1187.71
1187.71
1187.71
1187.71
1187.71
1187.71
1187.71
1187.71
1187.71
1187.71
1187.71
1187.71
1187.71
1187.71
1187.71
1187.71
1187.71
1187.71
1187.71
1187.71
1187.71
1187.71
1187.71
1187.71
1187.71
1187.71
1187.71
1187.71
1187.71
1187.71
1187.71
7.4009e+08
7.4009e+08
1187.71
1187.71
1187.71
7.4009e+08
7.4009e+08
7.4009e+08
7.4009e+08
7.4009e+08
7.4009e+08
7.4009e+08
1187.71
1187.71
1187.71
1187.71
1187.71
1187.71
1187.71
1187.71
1187.71
1187.71
1187.71
1187.71
1187.71
1187.71
1187.71
1187.71
1187.71
1187.71
1187.71
1187.71
1187.71
1187.71
1187.71
1187.71
1187.71
1187.71
1187.71
1187.71
1187.71
1187.71
1187.71
1187.71
1187.71
1187.71
1187.71
1187.71
1187.71
1187.71
1187.71
1187.71
1187.71
1187.71
1187.71
1187.71
1187.71
1187.71
1187.71
1187.71
1187.71
1187.71
1187.71
1187.71
1187.71
1187.71
1187.71
1187.71
1187.71
1187.71
1187.71
1187.71
1187.71
1187.71
1187.71
1187.71
1187.71
1187.71
1187.71
1187.71
1187.71
1187.71
1187.71
1187.71
1187.71
1187.71
1187.71
1187.71
1187.71
1187.71
1187.71
1187.71
1187.71
1187.71
1187.71
1187.71
1187.71
1187.71
7.4009e+08
1187.71
1187.71
1187.71
1187.71
1187.71
1187.71
1187.71
1187.71
1187.71
1187.71
1187.71
1187.71
1187.71
7.4009e+08
1187.71
1187.71
7.4009e+08
1187.71
1187.71
1187.71
1187.71
1187.71
1187.71
1187.71
1187.71
1187.71
1187.71
1187.71
1187.71
1187.71
1187.71
1187.71
7.4009e+08
1187.71
7.4009e+08
1187.71
1187.71
1187.71
1187.71
1187.71
1187.71
1187.71
1187.71
1187.71
1187.71
1187.71
1187.71
1187.71
1187.71
1187.71
1187.71
1187.71
1187.71
1187.71
1187.71
1187.71
1187.71
7.4009e+08
1187.71
1187.71
1187.71
1187.71
1187.71
1187.71
1187.71
1187.71
1187.71
1187.71
1187.71
1187.71
1187.71
1187.71
1187.71
1187.71
1187.71
1187.71
1187.71
1187.71
1187.71
1187.71
1187.71
1187.71
1187.71
1187.71
1187.71
1187.71
1187.71
1187.71
1187.71
1187.71
1187.71
1187.71
1187.71
1187.71
1187.71
1187.71
1187.71
1187.71
1187.71
1187.71
1187.71
1187.71
1187.71
1187.71
1187.71
1187.71
1187.71
1187.71
1187.71
1187.71
1187.71
1187.71
1187.71
1187.71
1187.71
1187.71
1187.71
1187.71
1187.71
1187.71
1187.71
1187.71
1187.71
1187.71
1187.71
1187.71
1187.71
1187.71
1187.71
1187.71
1187.71
1187.71
1187.71
1187.71
1187.71
1187.71
1187.71
1187.71
1187.71
1187.71
1187.71
1187.71
1187.71
1187.71
1187.71
1187.71
1187.71
1187.71
1187.71
1187.71
1187.71
1187.71
1187.71
1187.71
1187.71
1187.71
1187.71
1187.71
1187.71
1187.71
1187.71
1187.71
1187.71
1187.71
1187.71
1187.71
1187.71
1187.71
1187.71
1187.71
1187.71
1187.71
1187.71
1187.71
1187.71
1187.71
1187.71
1187.71
1187.71
1187.71
1187.71
1187.71
1187.71
1187.71
1187.71
1187.71
1187.71
1187.71
1187.71
1187.71
1187.71
1187.71
1187.71
1187.71
1187.71
1187.71
1187.71
1187.71
1187.71
1187.71
1187.71
1187.71
1187.71
1187.71
1187.71
1187.71
1187.71
1187.71
1187.71
1187.71
1187.71
1187.71
1187.71
7.4009e+08
7.4009e+08
1187.71
7.4009e+08
1187.71
7.4009e+08
7.4009e+08
7.4009e+08
7.4009e+08
7.4009e+08
1187.71
1187.71
1187.71
1187.71
1187.71
1187.71
1187.71
1187.71
1187.71
1187.71
1187.71
1187.71
1187.71
1187.71
1187.71
1187.71
1187.71
1187.71
1187.71
1187.71
1187.71
1187.71
1187.71
1187.71
1187.71
1187.71
1187.71
1187.71
1187.71
1187.71
1187.71
7.4009e+08
1187.71
1187.71
1187.71
1187.71
1187.71
1187.71
1187.71
1187.71
1187.71
7.4009e+08
7.4009e+08
1187.71
1187.71
1187.71
1187.71
1187.71
1187.71
1187.71
1187.71
1187.71
1187.71
1187.71
1187.71
1187.71
1187.71
1187.71
1187.71
1187.71
1187.71
1187.71
1187.71
1187.71
1187.71
1187.71
1187.71
1187.71
1187.71
1187.71
1187.71
1187.71
1187.71
1187.71
1187.71
1187.71
1187.71
1187.71
1187.71
1187.71
1187.71
1187.71
1187.71
1187.71
1187.71
1187.71
1187.71
1187.71
1187.71
1187.71
1187.71
1187.71
1187.71
1187.71
1187.71
1187.71
1187.71
1187.71
1187.71
1187.71
7.4009e+08
7.4009e+08
7.4009e+08
1187.71
1187.71
7.4009e+08
1187.71
1187.71
1187.71
1187.71
1187.71
1187.71
1187.71
1187.71
1187.71
1187.71
1187.71
1187.71
1187.71
1187.71
1187.71
1187.71
1187.71
1187.71
1187.71
1187.71
1187.71
1187.71
1187.71
1187.71
1187.71
1187.71
1187.71
1187.71
1187.71
1187.71
1187.71
1187.71
1187.71
1187.71
1187.71
1187.71
1187.71
1187.71
1187.71
1187.71
1187.71
1187.71
1187.71
1187.71
1187.71
1187.71
1187.71
1187.71
1187.71
1187.71
1187.71
1187.71
1187.71
1187.71
1187.71
1187.71
1187.71
1187.71
1187.71
1187.71
1187.71
1187.71
1187.71
1187.71
1187.71
1187.71
1187.71
1187.71
1187.71
1187.71
1187.71
1187.71
1187.71
1187.71
1187.71
1187.71
1187.71
1187.71
1187.71
1187.71
1187.71
1187.71
1187.71
1187.71
1187.71
1187.71
1187.71
1187.71
1187.71
1187.71
1187.71
1187.71
1187.71
1187.71
1187.71
1187.71
1187.71
1187.71
1187.71
1187.71
1187.71
7.4009e+08
7.4009e+08
1187.71
1187.71
1187.71
1187.71
1187.71
1187.71
1187.71
1187.71
1187.71
1187.71
1187.71
1187.71
1187.71
1187.71
1187.71
1187.71
1187.71
1187.71
1187.71
1187.71
1187.71
1187.71
1187.71
1187.71
1187.71
1187.71
1187.71
1187.71
1187.71
7.4009e+08
1187.71
1187.71
1187.71
1187.71
1187.71
1187.71
1187.71
1187.71
1187.71
1187.71
1187.71
1187.71
1187.71
1187.71
1187.71
1187.71
1187.71
1187.71
1187.71
1187.71
1187.71
1187.71
1187.71
1187.71
1187.71
1187.71
1187.71
1187.71
1187.71
1187.71
1187.71
1187.71
1187.71
1187.71
1187.71
1187.71
1187.71
1187.71
1187.71
1187.71
1187.71
1187.71
1187.71
1187.71
1187.71
1187.71
1187.71
1187.71
1187.71
1187.71
1187.71
1187.71
1187.71
1187.71
1187.71
1187.71
1187.71
1187.71
1187.71
1187.71
1187.71
1187.71
1187.71
1187.71
1187.71
1187.71
1187.71
1187.71
1187.71
1187.71
1187.71
1187.71
1187.71
1187.71
1187.71
1187.71
1187.71
1187.71
1187.71
7.4009e+08
1187.71
1187.71
1187.71
1187.71
1187.71
1187.71
1187.71
1187.71
1187.71
1187.71
1187.71
1187.71
1187.71
1187.71
1187.71
1187.71
1187.71
1187.71
1187.71
7.4009e+08
1187.71
1187.71
1187.71
1187.71
1187.71
1187.71
1187.71
1187.71
7.4009e+08
1187.71
1187.71
1187.71
1187.71
1187.71
1187.71
1187.71
1187.71
1187.71
1187.71
1187.71
1187.71
1187.71
1187.71
1187.71
1187.71
1187.71
1187.71
1187.71
1187.71
1187.71
1187.71
1187.71
1187.71
1187.71
1187.71
1187.71
1187.71
1187.71
1187.71
1187.71
1187.71
1187.71
1187.71
1187.71
1187.71
7.4009e+08
1187.71
1187.71
1187.71
1187.71
1187.71
1187.71
1187.71
1187.71
1187.71
1187.71
1187.71
1187.71
1187.71
1187.71
1187.71
1187.71
1187.71
1187.71
1187.71
1187.71
1187.71
1187.71
1187.71
1187.71
1187.71
1187.71
1187.71
1187.71
1187.71
1187.71
1187.71
1187.71
1187.71
1187.71
1187.71
7.4009e+08
7.4009e+08
1187.71
1187.71
1187.71
7.4009e+08
7.4009e+08
1187.71
1187.71
1187.71
1187.71
1187.71
1187.71
1187.71
1187.71
1187.71
1187.71
1187.71
1187.71
1187.71
1187.71
1187.71
1187.71
1187.71
1187.71
1187.71
1187.71
1187.71
1187.71
1187.71
1187.71
1187.71
1187.71
1187.71
1187.71
1187.71
1187.71
1187.71
1187.71
1187.71
1187.71
1187.71
1187.71
1187.71
1187.71
1187.71
1187.71
1187.71
1187.71
1187.71
1187.71
1187.71
1187.71
1187.71
1187.71
1187.71
1187.71
1187.71
1187.71
1187.71
1187.71
1187.71
1187.71
1187.71
1187.71
1187.71
1187.71
1187.71
1187.71
1187.71
1187.71
1187.71
1187.71
1187.71
1187.71
1187.71
1187.71
1187.71
1187.71
1187.71
1187.71
1187.71
1187.71
1187.71
1187.71
1187.71
1187.71
1187.71
1187.71
1187.71
1187.71
1187.71
7.4009e+08
1187.71
1187.71
1187.71
1187.71
1187.71
1187.71
1187.71
1187.71
1187.71
1187.71
1187.71
1187.71
1187.71
1187.71
1187.71
1187.71
1187.71
1187.71
1187.71
1187.71
1187.71
1187.71
1187.71
1187.71
1187.71
1187.71
7.4009e+08
1187.71
1187.71
1187.71
1187.71
1187.71
1187.71
1187.71
1187.71
1187.71
1187.71
1187.71
1187.71
1187.71
1187.71
1187.71
1187.71
1187.71
1187.71
1187.71
1187.71
1187.71
7.4009e+08
1187.71
1187.71
1187.71
1187.71
1187.71
1187.71
1187.71
1187.71
1187.71
7.4009e+08
7.4009e+08
1187.71
1187.71
1187.71
1187.71
1187.71
1187.71
1187.71
1187.71
1187.71
1187.71
1187.71
1187.71
1187.71
1187.71
1187.71
1187.71
1187.71
1187.71
1187.71
1187.71
1187.71
1187.71
1187.71
1187.71
1187.71
1187.71
1187.71
1187.71
7.4009e+08
7.4009e+08
1187.71
1187.71
1187.71
1187.71
1187.71
1187.71
1187.71
1187.71
1187.71
1187.71
1187.71
1187.71
1187.71
1187.71
1187.71
1187.71
1187.71
1187.71
1187.71
1187.71
1187.71
1187.71
1187.71
1187.71
1187.71
1187.71
1187.71
1187.71
1187.71
1187.71
1187.71
1187.71
1187.71
1187.71
1187.71
1187.71
1187.71
1187.71
1187.71
1187.71
1187.71
1187.71
1187.71
1187.71
1187.71
1187.71
1187.71
1187.71
1187.71
1187.71
1187.71
1187.71
1187.71
1187.71
1187.71
1187.71
1187.71
1187.71
1187.71
1187.71
1187.71
1187.71
1187.71
1187.71
1187.71
1187.71
1187.71
1187.71
1187.71
1187.71
1187.71
1187.71
7.4009e+08
1187.71
1187.71
1187.71
1187.71
1187.71
1187.71
1187.71
1187.71
1187.71
1187.71
1187.71
1187.71
1187.71
1187.71
7.4009e+08
1187.71
1187.71
1187.71
1187.71
1187.71
1187.71
1187.71
1187.71
1187.71
1187.71
1187.71
1187.71
1187.71
1187.71
1187.71
1187.71
7.4009e+08
1187.71
1187.71
1187.71
1187.71
1187.71
1187.71
1187.71
1187.71
1187.71
1187.71
1187.71
1187.71
1187.71
1187.71
1187.71
1187.71
1187.71
1187.71
1187.71
1187.71
1187.71
7.4009e+08
1187.71
1187.71
1187.71
1187.71
1187.71
1187.71
1187.71
1187.71
1187.71
1187.71
1187.71
1187.71
1187.71
1187.71
1187.71
1187.71
1187.71
1187.71
1187.71
1187.71
1187.71
1187.71
1187.71
1187.71
1187.71
1187.71
1187.71
1187.71
1187.71
1187.71
1187.71
1187.71
1187.71
1187.71
1187.71
1187.71
1187.71
7.4009e+08
1187.71
7.4009e+08
1187.71
1187.71
1187.71
1187.71
1187.71
1187.71
1187.71
1187.71
1187.71
1187.71
1187.71
1187.71
1187.71
1187.71
1187.71
1187.71
1187.71
1187.71
1187.71
1187.71
1187.71
1187.71
1187.71
1187.71
1187.71
1187.71
1187.71
7.4009e+08
1187.71
1187.71
1187.71
1187.71
1187.71
1187.71
1187.71
1187.71
1187.71
1187.71
1187.71
1187.71
1187.71
1187.71
1187.71
1187.71
1187.71
1187.71
1187.71
1187.71
1187.71
1187.71
1187.71
1187.71
1187.71
1187.71
1187.71
1187.71
1187.71
1187.71
1187.71
1187.71
1187.71
1187.71
7.4009e+08
1187.71
1187.71
1187.71
1187.71
1187.71
1187.71
1187.71
1187.71
1187.71
1187.71
1187.71
1187.71
1187.71
1187.71
1187.71
1187.71
1187.71
1187.71
1187.71
1187.71
1187.71
1187.71
1187.71
1187.71
1187.71
1187.71
1187.71
1187.71
1187.71
1187.71
1187.71
1187.71
7.4009e+08
7.4009e+08
1187.71
1187.71
1187.71
1187.71
1187.71
1187.71
1187.71
1187.71
1187.71
1187.71
1187.71
1187.71
1187.71
1187.71
1187.71
1187.71
1187.71
1187.71
1187.71
1187.71
1187.71
1187.71
1187.71
1187.71
1187.71
1187.71
1187.71
1187.71
1187.71
1187.71
1187.71
1187.71
1187.71
1187.71
1187.71
1187.71
1187.71
1187.71
1187.71
1187.71
1187.71
1187.71
1187.71
1187.71
1187.71
1187.71
1187.71
1187.71
1187.71
1187.71
1187.71
1187.71
1187.71
1187.71
1187.71
1187.71
1187.71
1187.71
1187.71
1187.71
1187.71
1187.71
1187.71
1187.71
1187.71
1187.71
1187.71
1187.71
1187.71
1187.71
1187.71
1187.71
1187.71
1187.71
1187.71
1187.71
1187.71
1187.71
7.4009e+08
1187.71
1187.71
1187.71
1187.71
1187.71
7.4009e+08
1187.71
1187.71
1187.71
1187.71
1187.71
1187.71
1187.71
1187.71
1187.71
1187.71
1187.71
1187.71
1187.71
1187.71
1187.71
1187.71
1187.71
1187.71
1187.71
1187.71
1187.71
1187.71
1187.71
1187.71
1187.71
1187.71
1187.71
1187.71
1187.71
1187.71
1187.71
1187.71
1187.71
7.4009e+08
1187.71
1187.71
1187.71
1187.71
1187.71
1187.71
1187.71
1187.71
1187.71
1187.71
1187.71
1187.71
1187.71
1187.71
1187.71
1187.71
1187.71
7.4009e+08
1187.71
1187.71
1187.71
1187.71
1187.71
1187.71
1187.71
1187.71
1187.71
1187.71
1187.71
1187.71
1187.71
1187.71
1187.71
7.4009e+08
1187.71
1187.71
1187.71
1187.71
1187.71
7.4009e+08
7.4009e+08
1187.71
1187.71
1187.71
1187.71
1187.71
1187.71
1187.71
1187.71
1187.71
1187.71
1187.71
1187.71
1187.71
1187.71
1187.71
1187.71
1187.71
1187.71
1187.71
1187.71
1187.71
1187.71
1187.71
1187.71
1187.71
1187.71
1187.71
1187.71
1187.71
1187.71
1187.71
1187.71
1187.71
1187.71
1187.71
1187.71
1187.71
1187.71
1187.71
1187.71
1187.71
1187.71
1187.71
1187.71
1187.71
1187.71
1187.71
1187.71
1187.71
1187.71
1187.71
1187.71
7.4009e+08
1187.71
1187.71
1187.71
1187.71
1187.71
1187.71
1187.71
1187.71
1187.71
1187.71
1187.71
1187.71
1187.71
1187.71
1187.71
1187.71
1187.71
1187.71
1187.71
1187.71
1187.71
1187.71
1187.71
1187.71
1187.71
1187.71
1187.71
7.4009e+08
1187.71
1187.71
1187.71
1187.71
1187.71
1187.71
1187.71
1187.71
1187.71
1187.71
1187.71
1187.71
1187.71
1187.71
1187.71
1187.71
1187.71
1187.71
1187.71
1187.71
1187.71
1187.71
1187.71
1187.71
1187.71
1187.71
1187.71
1187.71
1187.71
1187.71
1187.71
1187.71
1187.71
1187.71
1187.71
1187.71
1187.71
1187.71
1187.71
1187.71
1187.71
1187.71
1187.71
1187.71
1187.71
1187.71
1187.71
1187.71
1187.71
1187.71
1187.71
1187.71
1187.71
1187.71
1187.71
1187.71
1187.71
1187.71
1187.71
1187.71
1187.71
1187.71
1187.71
1187.71
1187.71
1187.71
1187.71
1187.71
1187.71
1187.71
1187.71
1187.71
1187.71
1187.71
1187.71
1187.71
1187.71
1187.71
1187.71
1187.71
1187.71
1187.71
1187.71
1187.71
1187.71
1187.71
1187.71
1187.71
1187.71
1187.71
1187.71
1187.71
1187.71
1187.71
1187.71
1187.71
1187.71
1187.71
1187.71
1187.71
1187.71
1187.71
1187.71
1187.71
1187.71
1187.71
1187.71
1187.71
1187.71
1187.71
1187.71
1187.71
1187.71
1187.71
1187.71
1187.71
1187.71
1187.71
1187.71
1187.71
1187.71
1187.71
1187.71
1187.71
1187.71
1187.71
1187.71
1187.71
1187.71
1187.71
1187.71
1187.71
1187.71
1187.71
1187.71
1187.71
1187.71
1187.71
1187.71
1187.71
1187.71
1187.71
1187.71
1187.71
1187.71
1187.71
1187.71
1187.71
1187.71
1187.71
1187.71
1187.71
1187.71
1187.71
1187.71
1187.71
1187.71
1187.71
1187.71
1187.71
1187.71
1187.71
1187.71
1187.71
1187.71
1187.71
1187.71
1187.71
1187.71
1187.71
1187.71
1187.71
1187.71
1187.71
1187.71
1187.71
1187.71
1187.71
1187.71
1187.71
1187.71
1187.71
1187.71
1187.71
1187.71
1187.71
1187.71
1187.71
1187.71
1187.71
1187.71
1187.71
1187.71
1187.71
1187.71
1187.71
1187.71
1187.71
1187.71
1187.71
1187.71
1187.71
1187.71
1187.71
1187.71
1187.71
1187.71
1187.71
1187.71
1187.71
1187.71
1187.71
1187.71
1187.71
1187.71
1187.71
1187.71
1187.71
1187.71
1187.71
1187.71
1187.71
1187.71
1187.71
1187.71
1187.71
1187.71
1187.71
1187.71
1187.71
1187.71
1187.71
1187.71
1187.71
1187.71
1187.71
1187.71
1187.71
1187.71
1187.71
1187.71
1187.71
1187.71
1187.71
1187.71
1187.71
1187.71
1187.71
1187.71
1187.71
1187.71
1187.71
1187.71
1187.71
1187.71
1187.71
1187.71
1187.71
1187.71
1187.71
1187.71
1187.71
1187.71
1187.71
1187.71
1187.71
1187.71
1187.71
1187.71
1187.71
1187.71
1187.71
1187.71
1187.71
1187.71
1187.71
1187.71
1187.71
1187.71
1187.71
1187.71
1187.71
1187.71
1187.71
1187.71
1187.71
1187.71
1187.71
1187.71
1187.71
1187.71
1187.71
1187.71
1187.71
1187.71
1187.71
1187.71
1187.71
1187.71
1187.71
1187.71
1187.71
1187.71
1187.71
1187.71
1187.71
1187.71
1187.71
1187.71
1187.71
1187.71
1187.71
1187.71
1187.71
1187.71
1187.71
1187.71
1187.71
1187.71
1187.71
1187.71
1187.71
1187.71
1187.71
1187.71
1187.71
1187.71
1187.71
1187.71
1187.71
1187.71
1187.71
1187.71
1187.71
1187.71
1187.71
1187.71
1187.71
1187.71
1187.71
1187.71
1187.71
1187.71
1187.71
1187.71
1187.71
1187.71
1187.71
1187.71
1187.71
1187.71
1187.71
1187.71
1187.71
1187.71
1187.71
1187.71
1187.71
1187.71
1187.71
1187.71
1187.71
1187.71
1187.71
1187.71
1187.71
1187.71
1187.71
1187.71
1187.71
1187.71
1187.71
1187.71
1187.71
1187.71
1187.71
1187.71
1187.71
1187.71
1187.71
1187.71
1187.71
1187.71
1187.71
1187.71
1187.71
1187.71
1187.71
1187.71
1187.71
1187.71
1187.71
1187.71
1187.71
1187.71
1187.71
1187.71
1187.71
1187.71
1187.71
1187.71
1187.71
1187.71
1187.71
1187.71
1187.71
1187.71
1187.71
1187.71
1187.71
1187.71
1187.71
1187.71
1187.71
1187.71
1187.71
1187.71
1187.71
1187.71
1187.71
1187.71
1187.71
1187.71
1187.71
1187.71
1187.71
1187.71
1187.71
1187.71
1187.71
1187.71
1187.71
1187.71
1187.71
1187.71
1187.71
1187.71
1187.71
1187.71
1187.71
1187.71
1187.71
1187.71
1187.71
1187.71
1187.71
1187.71
1187.71
1187.71
1187.71
1187.71
1187.71
1187.71
1187.71
1187.71
1187.71
1187.71
1187.71
1187.71
1187.71
1187.71
1187.71
1187.71
1187.71
1187.71
1187.71
1187.71
1187.71
1187.71
1187.71
1187.71
1187.71
1187.71
1187.71
1187.71
1187.71
1187.71
1187.71
1187.71
1187.71
1187.71
1187.71
1187.71
1187.71
1187.71
1187.71
1187.71
1187.71
1187.71
1187.71
1187.71
1187.71
1187.71
1187.71
1187.71
1187.71
1187.71
1187.71
1187.71
1187.71
1187.71
1187.71
1187.71
1187.71
1187.71
1187.71
1187.71
1187.71
1187.71
1187.71
1187.71
1187.71
1187.71
1187.71
1187.71
1187.71
1187.71
1187.71
1187.71
1187.71
1187.71
1187.71
1187.71
1187.71
1187.71
1187.71
1187.71
1187.71
1187.71
1187.71
1187.71
1187.71
1187.71
1187.71
1187.71
1187.71
1187.71
1187.71
1187.71
1187.71
1187.71
1187.71
1187.71
1187.71
1187.71
1187.71
1187.71
1187.71
1187.71
1187.71
1187.71
1187.71
1187.71
1187.71
1187.71
1187.71
1187.71
1187.71
1187.71
1187.71
1187.71
1187.71
1187.71
1187.71
1187.71
1187.71
1187.71
1187.71
1187.71
1187.71
1187.71
1187.71
1187.71
1187.71
1187.71
1187.71
1187.71
1187.71
1187.71
1187.71
1187.71
1187.71
1187.71
1187.71
1187.71
1187.71
1187.71
1187.71
1187.71
1187.71
1187.71
1187.71
1187.71
1187.71
1187.71
1187.71
1187.71
1187.71
1187.71
1187.71
1187.71
1187.71
1187.71
1187.71
1187.71
1187.71
1187.71
1187.71
1187.71
1187.71
1187.71
1187.71
1187.71
1187.71
1187.71
1187.71
1187.71
1187.71
1187.71
1187.71
1187.71
1187.71
1187.71
1187.71
1187.71
1187.71
1187.71
1187.71
1187.71
1187.71
1187.71
1187.71
1187.71
1187.71
1187.71
1187.71
1187.71
1187.71
1187.71
1187.71
1187.71
1187.71
1187.71
1187.71
1187.71
1187.71
1187.71
1187.71
1187.71
1187.71
1187.71
1187.71
1187.71
1187.71
1187.71
1187.71
1187.71
1187.71
1187.71
1187.71
1187.71
1187.71
1187.71
1187.71
1187.71
1187.71
1187.71
1187.71
1187.71
1187.71
1187.71
1187.71
1187.71
1187.71
1187.71
1187.71
1187.71
1187.71
1187.71
1187.71
1187.71
1187.71
1187.71
1187.71
1187.71
1187.71
1187.71
1187.71
1187.71
1187.71
1187.71
1187.71
1187.71
1187.71
1187.71
1187.71
1187.71
1187.71
1187.71
1187.71
1187.71
1187.71
1187.71
1187.71
1187.71
1187.71
1187.71
1187.71
1187.71
1187.71
1187.71
1187.71
1187.71
1187.71
1187.71
1187.71
1187.71
1187.71
1187.71
1187.71
1187.71
1187.71
1187.71
1187.71
1187.71
1187.71
1187.71
1187.71
1187.71
1187.71
1187.71
1187.71
1187.71
1187.71
1187.71
1187.71
1187.71
1187.71
1187.71
1187.71
1187.71
1187.71
1187.71
1187.71
1187.71
1187.71
1187.71
1187.71
1187.71
1187.71
1187.71
1187.71
1187.71
1187.71
1187.71
1187.71
1187.71
1187.71
1187.71
1187.71
1187.71
1187.71
1187.71
1187.71
1187.71
1187.71
1187.71
1187.71
1187.71
1187.71
1187.71
1187.71
1187.71
1187.71
1187.71
1187.71
1187.71
1187.71
1187.71
1187.71
1187.71
1187.71
1187.71
1187.71
1187.71
1187.71
1187.71
1187.71
1187.71
1187.71
1187.71
1187.71
1187.71
1187.71
1187.71
1187.71
1187.71
1187.71
1187.71
1187.71
1187.71
1187.71
1187.71
1187.71
1187.71
1187.71
1187.71
1187.71
1187.71
1187.71
1187.71
1187.71
1187.71
1187.71
1187.71
1187.71
1187.71
1187.71
1187.71
1187.71
1187.71
1187.71
1187.71
1187.71
1187.71
1187.71
1187.71
1187.71
1187.71
1187.71
1187.71
1187.71
1187.71
1187.71
1187.71
1187.71
1187.71
1187.71
1187.71
1187.71
1187.71
1187.71
1187.71
1187.71
1187.71
1187.71
1187.71
1187.71
1187.71
1187.71
1187.71
1187.71
1187.71
1187.71
1187.71
1187.71
1187.71
1187.71
1187.71
1187.71
1187.71
1187.71
1187.71
1187.71
1187.71
1187.71
1187.71
1187.71
1187.71
1187.71
1187.71
1187.71
1187.71
1187.71
1187.71
1187.71
1187.71
1187.71
1187.71
1187.71
1187.71
1187.71
1187.71
1187.71
1187.71
1187.71
1187.71
1187.71
1187.71
1187.71
1187.71
1187.71
1187.71
1187.71
1187.71
1187.71
1187.71
1187.71
1187.71
1187.71
1187.71
1187.71
1187.71
1187.71
1187.71
1187.71
1187.71
1187.71
1187.71
1187.71
1187.71
1187.71
1187.71
1187.71
1187.71
1187.71
1187.71
1187.71
1187.71
1187.71
1187.71
1187.71
1187.71
1187.71
1187.71
1187.71
1187.71
1187.71
1187.71
1187.71
1187.71
1187.71
1187.71
1187.71
1187.71
1187.71
1187.71
1187.71
1187.71
1187.71
1187.71
1187.71
1187.71
1187.71
1187.71
1187.71
1187.71
1187.71
1187.71
1187.71
1187.71
1187.71
1187.71
1187.71
1187.71
1187.71
1187.71
1187.71
1187.71
1187.71
1187.71
1187.71
1187.71
1187.71
1187.71
1187.71
1187.71
1187.71
1187.71
1187.71
1187.71
1187.71
1187.71
1187.71
1187.71
1187.71
1187.71
1187.71
1187.71
1187.71
1187.71
1187.71
1187.71
1187.71
1187.71
1187.71
1187.71
1187.71
1187.71
1187.71
1187.71
1187.71
1187.71
1187.71
1187.71
1187.71
1187.71
1187.71
1187.71
1187.71
1187.71
1187.71
1187.71
1187.71
1187.71
1187.71
1187.71
1187.71
1187.71
1187.71
1187.71
1187.71
1187.71
1187.71
1187.71
1187.71
1187.71
1187.71
1187.71
1187.71
1187.71
1187.71
1187.71
1187.71
1187.71
1187.71
1187.71
1187.71
1187.71
1187.71
1187.71
1187.71
1187.71
1187.71
1187.71
1187.71
1187.71
1187.71
1187.71
1187.71
1187.71
1187.71
1187.71
1187.71
1187.71
1187.71
1187.71
1187.71
1187.71
1187.71
1187.71
1187.71
1187.71
1187.71
1187.71
1187.71
1187.71
1187.71
1187.71
1187.71
1187.71
1187.71
1187.71
1187.71
1187.71
1187.71
1187.71
1187.71
1187.71
1187.71
1187.71
1187.71
1187.71
1187.71
1187.71
1187.71
1187.71
1187.71
1187.71
1187.71
1187.71
1187.71
1187.71
1187.71
1187.71
1187.71
1187.71
1187.71
1187.71
1187.71
1187.71
1187.71
1187.71
1187.71
1187.71
1187.71
1187.71
1187.71
1187.71
1187.71
1187.71
1187.71
1187.71
1187.71
1187.71
1187.71
1187.71
1187.71
1187.71
1187.71
1187.71
1187.71
1187.71
1187.71
1187.71
1187.71
1187.71
1187.71
1187.71
1187.71
1187.71
1187.71
1187.71
1187.71
1187.71
1187.71
1187.71
1187.71
1187.71
1187.71
1187.71
1187.71
1187.71
1187.71
1187.71
1187.71
1187.71
1187.71
1187.71
1187.71
1187.71
1187.71
1187.71
1187.71
1187.71
1187.71
1187.71
1187.71
1187.71
1187.71
1187.71
1187.71
1187.71
1187.71
1187.71
1187.71
1187.71
1187.71
1187.71
1187.71
1187.71
1187.71
1187.71
1187.71
1187.71
1187.71
1187.71
1187.71
1187.71
1187.71
1187.71
1187.71
1187.71
1187.71
1187.71
1187.71
1187.71
1187.71
1187.71
1187.71
1187.71
1187.71
1187.71
1187.71
1187.71
1187.71
1187.71
1187.71
1187.71
1187.71
1187.71
1187.71
1187.71
1187.71
1187.71
1187.71
1187.71
1187.71
1187.71
1187.71
1187.71
1187.71
1187.71
1187.71
1187.71
1187.71
1187.71
1187.71
1187.71
1187.71
1187.71
1187.71
1187.71
1187.71
1187.71
1187.71
1187.71
1187.71
1187.71
1187.71
1187.71
1187.71
1187.71
1187.71
1187.71
1187.71
1187.71
1187.71
1187.71
1187.71
1187.71
1187.71
1187.71
1187.71
1187.71
1187.71
1187.71
1187.71
1187.71
1187.71
1187.71
1187.71
1187.71
1187.71
1187.71
1187.71
1187.71
1187.71
1187.71
1187.71
1187.71
1187.71
1187.71
1187.71
1187.71
1187.71
1187.71
1187.71
1187.71
1187.71
1187.71
1187.71
1187.71
1187.71
1187.71
1187.71
1187.71
1187.71
1187.71
1187.71
1187.71
1187.71
1187.71
1187.71
1187.71
1187.71
1187.71
1187.71
1187.71
1187.71
1187.71
1187.71
1187.71
1187.71
1187.71
1187.71
1187.71
1187.71
1187.71
1187.71
1187.71
1187.71
1187.71
1187.71
1187.71
1187.71
1187.71
1187.71
1187.71
1187.71
1187.71
1187.71
1187.71
1187.71
1187.71
1187.71
1187.71
1187.71
1187.71
1187.71
1187.71
1187.71
1187.71
1187.71
1187.71
1187.71
1187.71
1187.71
1187.71
1187.71
1187.71
1187.71
1187.71
1187.71
1187.71
1187.71
1187.71
1187.71
1187.71
1187.71
1187.71
1187.71
1187.71
1187.71
1187.71
1187.71
1187.71
1187.71
1187.71
1187.71
1187.71
1187.71
1187.71
1187.71
1187.71
1187.71
1187.71
1187.71
1187.71
1187.71
1187.71
1187.71
1187.71
1187.71
1187.71
1187.71
1187.71
1187.71
1187.71
1187.71
1187.71
1187.71
1187.71
1187.71
1187.71
1187.71
1187.71
1187.71
1187.71
1187.71
1187.71
1187.71
1187.71
1187.71
1187.71
1187.71
1187.71
1187.71
1187.71
1187.71
1187.71
1187.71
1187.71
1187.71
1187.71
1187.71
1187.71
1187.71
1187.71
1187.71
1187.71
1187.71
1187.71
1187.71
1187.71
1187.71
1187.71
1187.71
1187.71
1187.71
1187.71
1187.71
1187.71
1187.71
1187.71
1187.71
1187.71
1187.71
1187.71
1187.71
1187.71
1187.71
1187.71
1187.71
1187.71
1187.71
1187.71
1187.71
1187.71
1187.71
1187.71
1187.71
1187.71
1187.71
1187.71
1187.71
1187.71
1187.71
1187.71
1187.71
1187.71
1187.71
1187.71
1187.71
1187.71
1187.71
1187.71
1187.71
1187.71
1187.71
1187.71
1187.71
1187.71
1187.71
1187.71
1187.71
1187.71
1187.71
1187.71
1187.71
1187.71
1187.71
1187.71
1187.71
1187.71
1187.71
1187.71
1187.71
1187.71
1187.71
1187.71
1187.71
1187.71
1187.71
1187.71
1187.71
1187.71
1187.71
1187.71
1187.71
1187.71
1187.71
1187.71
1187.71
1187.71
1187.71
1187.71
1187.71
1187.71
1187.71
1187.71
1187.71
1187.71
1187.71
1187.71
1187.71
1187.71
1187.71
1187.71
1187.71
1187.71
1187.71
1187.71
1187.71
1187.71
1187.71
1187.71
1187.71
1187.71
1187.71
1187.71
1187.71
1187.71
1187.71
1187.71
1187.71
1187.71
1187.71
1187.71
1187.71
1187.71
1187.71
1187.71
1187.71
1187.71
1187.71
1187.71
1187.71
1187.71
1187.71
1187.71
1187.71
1187.71
1187.71
1187.71
1187.71
1187.71
1187.71
1187.71
1187.71
1187.71
1187.71
1187.71
1187.71
1187.71
1187.71
1187.71
1187.71
1187.71
1187.71
1187.71
1187.71
1187.71
1187.71
1187.71
1187.71
1187.71
1187.71
1187.71
1187.71
1187.71
1187.71
1187.71
1187.71
1187.71
1187.71
1187.71
1187.71
1187.71
1187.71
1187.71
1187.71
1187.71
1187.71
1187.71
1187.71
1187.71
1187.71
1187.71
1187.71
1187.71
1187.71
1187.71
1187.71
1187.71
1187.71
1187.71
1187.71
1187.71
1187.71
1187.71
1187.71
1187.71
1187.71
1187.71
1187.71
1187.71
1187.71
1187.71
1187.71
1187.71
1187.71
1187.71
1187.71
1187.71
1187.71
1187.71
1187.71
1187.71
1187.71
1187.71
1187.71
1187.71
1187.71
1187.71
1187.71
1187.71
1187.71
1187.71
1187.71
1187.71
1187.71
1187.71
1187.71
1187.71
1187.71
1187.71
1187.71
1187.71
1187.71
1187.71
1187.71
1187.71
1187.71
1187.71
1187.71
1187.71
1187.71
1187.71
1187.71
1187.71
1187.71
1187.71
1187.71
1187.71
1187.71
1187.71
1187.71
1187.71
1187.71
1187.71
1187.71
1187.71
1187.71
1187.71
1187.71
1187.71
1187.71
1187.71
1187.71
1187.71
1187.71
1187.71
1187.71
1187.71
1187.71
1187.71
1187.71
1187.71
1187.71
1187.71
1187.71
1187.71
1187.71
1187.71
1187.71
1187.71
1187.71
1187.71
1187.71
1187.71
1187.71
1187.71
1187.71
1187.71
1187.71
1187.71
1187.71
1187.71
1187.71
1187.71
1187.71
1187.71
1187.71
1187.71
1187.71
1187.71
1187.71
1187.71
1187.71
1187.71
1187.71
1187.71
1187.71
1187.71
1187.71
1187.71
1187.71
1187.71
1187.71
1187.71
1187.71
1187.71
1187.71
1187.71
1187.71
1187.71
1187.71
1187.71
1187.71
1187.71
1187.71
1187.71
1187.71
1187.71
1187.71
1187.71
1187.71
1187.71
1187.71
1187.71
1187.71
1187.71
1187.71
1187.71
1187.71
1187.71
1187.71
1187.71
1187.71
1187.71
1187.71
1187.71
1187.71
1187.71
1187.71
1187.71
1187.71
1187.71
1187.71
1187.71
1187.71
1187.71
1187.71
1187.71
1187.71
1187.71
1187.71
1187.71
1187.71
1187.71
1187.71
1187.71
1187.71
1187.71
1187.71
1187.71
1187.71
1187.71
1187.71
1187.71
1187.71
1187.71
1187.71
1187.71
1187.71
1187.71
1187.71
1187.71
1187.71
1187.71
1187.71
1187.71
1187.71
1187.71
1187.71
1187.71
1187.71
1187.71
1187.71
1187.71
1187.71
1187.71
1187.71
1187.71
1187.71
1187.71
1187.71
1187.71
1187.71
1187.71
1187.71
1187.71
1187.71
1187.71
1187.71
1187.71
1187.71
1187.71
1187.71
1187.71
1187.71
1187.71
1187.71
1187.71
1187.71
1187.71
1187.71
1187.71
1187.71
1187.71
1187.71
1187.71
1187.71
1187.71
1187.71
1187.71
1187.71
1187.71
1187.71
1187.71
1187.71
1187.71
1187.71
1187.71
1187.71
1187.71
1187.71
1187.71
1187.71
1187.71
1187.71
1187.71
1187.71
1187.71
1187.71
1187.71
1187.71
1187.71
1187.71
1187.71
1187.71
1187.71
1187.71
1187.71
1187.71
1187.71
1187.71
1187.71
1187.71
1187.71
1187.71
1187.71
1187.71
1187.71
1187.71
1187.71
1187.71
1187.71
1187.71
1187.71
1187.71
1187.71
1187.71
1187.71
1187.71
1187.71
1187.71
1187.71
1187.71
1187.71
1187.71
1187.71
1187.71
1187.71
1187.71
1187.71
1187.71
1187.71
1187.71
1187.71
1187.71
1187.71
1187.71
1187.71
1187.71
1187.71
1187.71
1187.71
1187.71
1187.71
1187.71
1187.71
1187.71
1187.71
1187.71
1187.71
1187.71
1187.71
1187.71
1187.71
1187.71
1187.71
1187.71
1187.71
1187.71
1187.71
1187.71
1187.71
1187.71
1187.71
1187.71
1187.71
1187.71
1187.71
1187.71
1187.71
1187.71
1187.71
1187.71
1187.71
1187.71
1187.71
1187.71
1187.71
1187.71
1187.71
1187.71
1187.71
1187.71
1187.71
1187.71
1187.71
1187.71
1187.71
1187.71
1187.71
1187.71
1187.71
1187.71
1187.71
1187.71
1187.71
1187.71
1187.71
1187.71
1187.71
1187.71
1187.71
1187.71
1187.71
1187.71
1187.71
1187.71
1187.71
1187.71
1187.71
1187.71
1187.71
1187.71
1187.71
1187.71
1187.71
1187.71
1187.71
1187.71
1187.71
1187.71
1187.71
1187.71
1187.71
1187.71
1187.71
1187.71
1187.71
1187.71
1187.71
1187.71
1187.71
1187.71
1187.71
1187.71
1187.71
1187.71
1187.71
1187.71
1187.71
1187.71
1187.71
1187.71
1187.71
1187.71
1187.71
1187.71
1187.71
1187.71
1187.71
1187.71
1187.71
1187.71
1187.71
1187.71
1187.71
1187.71
1187.71
1187.71
1187.71
1187.71
1187.71
1187.71
1187.71
1187.71
1187.71
1187.71
1187.71
1187.71
1187.71
1187.71
1187.71
1187.71
1187.71
1187.71
1187.71
1187.71
1187.71
1187.71
1187.71
1187.71
1187.71
1187.71
1187.71
1187.71
1187.71
1187.71
1187.71
1187.71
1187.71
1187.71
1187.71
1187.71
1187.71
1187.71
1187.71
1187.71
1187.71
1187.71
1187.71
1187.71
1187.71
1187.71
1187.71
1187.71
1187.71
1187.71
1187.71
1187.71
1187.71
1187.71
1187.71
1187.71
1187.71
1187.71
1187.71
1187.71
1187.71
1187.71
1187.71
1187.71
1187.71
1187.71
1187.71
1187.71
1187.71
1187.71
1187.71
1187.71
1187.71
1187.71
1187.71
1187.71
1187.71
1187.71
1187.71
1187.71
1187.71
1187.71
1187.71
1187.71
1187.71
1187.71
1187.71
1187.71
1187.71
1187.71
1187.71
1187.71
1187.71
1187.71
1187.71
1187.71
1187.71
1187.71
1187.71
1187.71
1187.71
1187.71
1187.71
1187.71
1187.71
1187.71
1187.71
1187.71
1187.71
1187.71
1187.71
1187.71
1187.71
1187.71
1187.71
1187.71
1187.71
1187.71
1187.71
1187.71
1187.71
1187.71
1187.71
1187.71
1187.71
1187.71
1187.71
1187.71
1187.71
1187.71
1187.71
1187.71
1187.71
1187.71
1187.71
1187.71
1187.71
1187.71
1187.71
1187.71
1187.71
1187.71
1187.71
1187.71
1187.71
1187.71
1187.71
1187.71
1187.71
1187.71
1187.71
1187.71
1187.71
1187.71
1187.71
1187.71
1187.71
1187.71
1187.71
1187.71
1187.71
1187.71
1187.71
1187.71
1187.71
1187.71
1187.71
1187.71
1187.71
1187.71
1187.71
1187.71
1187.71
1187.71
1187.71
1187.71
1187.71
1187.71
1187.71
1187.71
1187.71
1187.71
1187.71
1187.71
1187.71
1187.71
1187.71
1187.71
1187.71
1187.71
1187.71
1187.71
1187.71
1187.71
1187.71
1187.71
1187.71
1187.71
1187.71
1187.71
1187.71
1187.71
1187.71
1187.71
1187.71
1187.71
1187.71
1187.71
1187.71
1187.71
1187.71
1187.71
1187.71
1187.71
1187.71
1187.71
1187.71
1187.71
1187.71
1187.71
1187.71
1187.71
1187.71
1187.71
1187.71
1187.71
1187.71
1187.71
1187.71
1187.71
1187.71
1187.71
1187.71
1187.71
1187.71
1187.71
1187.71
1187.71
1187.71
1187.71
1187.71
1187.71
1187.71
1187.71
1187.71
1187.71
1187.71
1187.71
1187.71
1187.71
1187.71
1187.71
1187.71
1187.71
1187.71
1187.71
1187.71
1187.71
1187.71
1187.71
1187.71
1187.71
1187.71
1187.71
1187.71
1187.71
1187.71
1187.71
1187.71
1187.71
1187.71
1187.71
1187.71
1187.71
1187.71
1187.71
1187.71
1187.71
1187.71
1187.71
1187.71
1187.71
1187.71
1187.71
1187.71
1187.71
1187.71
1187.71
1187.71
1187.71
1187.71
1187.71
1187.71
1187.71
1187.71
1187.71
1187.71
1187.71
1187.71
1187.71
1187.71
1187.71
1187.71
1187.71
1187.71
1187.71
1187.71
1187.71
1187.71
1187.71
1187.71
1187.71
1187.71
1187.71
1187.71
1187.71
1187.71
1187.71
1187.71
1187.71
1187.71
1187.71
1187.71
1187.71
1187.71
1187.71
[...]

Solving for density 

diagonal:  Solving for rho, Initial residual = 0, Final residual = 0, No Iterations 0
Solving for momentum 
 
diagonal:  Solving for rhoUx, Initial residual = 0, Final residual = 0, No Iterations 0
diagonal:  Solving for rhoUy, Initial residual = 0, Final residual = 0, No Iterations 0
Solving for energy 
diagonal:  Solving for rhoE, Initial residual = 0, Final residual = 0, No Iterations 0
Correcting thermo quantities 
calculateFromRhoE 
End of calculateFromRhoE 
ExecutionTime = 0.87 s  ClockTime = 0 s

p[1] 1145.43
T[1] 1000
rho[1] 0.001
e[1] 1.7096e+06
deltaT = 2.5e-08
Mean and max Courant Numbers = 0.00224268 0.917856
Time = 2.1e-06

Solving for density 

diagonal:  Solving for rho, Initial residual = 0, Final residual = 0, No Iterations 0
Solving for momentum 
 
diagonal:  Solving for rhoUx, Initial residual = 0, Final residual = 0, No Iterations 0
diagonal:  Solving for rhoUy, Initial residual = 0, Final residual = 0, No Iterations 0
Solving for energy 
diagonal:  Solving for rhoE, Initial residual = 0, Final residual = 0, No Iterations 0
Correcting thermo quantities 
calculateFromRhoE 
End of calculateFromRhoE 
ExecutionTime = 0.89 s  ClockTime = 0 s

p[1] 1145.43
T[1] 1000
rho[1] 0.001
e[1] 1.7096e+06
deltaT = 2.5e-08
Mean and max Courant Numbers = 0.00225294 0.917873
Time = 2.125e-06

Solving for density 

diagonal:  Solving for rho, Initial residual = 0, Final residual = 0, No Iterations 0
Solving for momentum 
 
diagonal:  Solving for rhoUx, Initial residual = 0, Final residual = 0, No Iterations 0
diagonal:  Solving for rhoUy, Initial residual = 0, Final residual = 0, No Iterations 0
Solving for energy 
diagonal:  Solving for rhoE, Initial residual = 0, Final residual = 0, No Iterations 0
Correcting thermo quantities 
calculateFromRhoE 
End of calculateFromRhoE 
ExecutionTime = 0.89 s  ClockTime = 0 s

p[1] 1145.43
T[1] 1000
rho[1] 0.001
e[1] 1.7096e+06
deltaT = 2.5e-08
Mean and max Courant Numbers = 0.00226329 0.917904
Time = 2.15e-06

Solving for density 

diagonal:  Solving for rho, Initial residual = 0, Final residual = 0, No Iterations 0
Solving for momentum 
 
diagonal:  Solving for rhoUx, Initial residual = 0, Final residual = 0, No Iterations 0
diagonal:  Solving for rhoUy, Initial residual = 0, Final residual = 0, No Iterations 0
Solving for energy 
diagonal:  Solving for rhoE, Initial residual = 0, Final residual = 0, No Iterations 0
Correcting thermo quantities 
calculateFromRhoE 
End of calculateFromRhoE 
ExecutionTime = 0.9 s  ClockTime = 0 s

p[1] 1145.43
T[1] 1000
rho[1] 0.001
e[1] 1.7096e+06
deltaT = 2.5e-08
Mean and max Courant Numbers = 0.00227375 0.917962
Time = 2.175e-06

Solving for density 

diagonal:  Solving for rho, Initial residual = 0, Final residual = 0, No Iterations 0
Solving for momentum 
 
diagonal:  Solving for rhoUx, Initial residual = 0, Final residual = 0, No Iterations 0
diagonal:  Solving for rhoUy, Initial residual = 0, Final residual = 0, No Iterations 0
Solving for energy 
diagonal:  Solving for rhoE, Initial residual = 0, Final residual = 0, No Iterations 0
Correcting thermo quantities 
calculateFromRhoE 
End of calculateFromRhoE 
ExecutionTime = 0.91 s  ClockTime = 0 s

p[1] 1145.43
T[1] 1000
rho[1] 0.001
e[1] 1.7096e+06
deltaT = 2.5e-08
Mean and max Courant Numbers = 0.00228425 0.918067
Time = 2.2e-06

Solving for density 

diagonal:  Solving for rho, Initial residual = 0, Final residual = 0, No Iterations 0
Solving for momentum 
 
diagonal:  Solving for rhoUx, Initial residual = 0, Final residual = 0, No Iterations 0
diagonal:  Solving for rhoUy, Initial residual = 0, Final residual = 0, No Iterations 0
Solving for energy 
diagonal:  Solving for rhoE, Initial residual = 0, Final residual = 0, No Iterations 0
Correcting thermo quantities 
calculateFromRhoE 
End of calculateFromRhoE 
ExecutionTime = 0.93 s  ClockTime = 1 s

p[1] 1145.43
T[1] 1000
rho[1] 0.001
e[1] 1.7096e+06
deltaT = 2.5e-08
Mean and max Courant Numbers = 0.00229486 0.918261
Time = 2.225e-06

Solving for density 

diagonal:  Solving for rho, Initial residual = 0, Final residual = 0, No Iterations 0
Solving for momentum 
 
diagonal:  Solving for rhoUx, Initial residual = 0, Final residual = 0, No Iterations 0
diagonal:  Solving for rhoUy, Initial residual = 0, Final residual = 0, No Iterations 0
Solving for energy 
diagonal:  Solving for rhoE, Initial residual = 0, Final residual = 0, No Iterations 0
Correcting thermo quantities 
calculateFromRhoE 
End of calculateFromRhoE 
ExecutionTime = 0.93 s  ClockTime = 1 s

p[1] 1145.43
T[1] 1000
rho[1] 0.001
e[1] 1.7096e+06
deltaT = 2.5e-08
Mean and max Courant Numbers = 0.00230562 0.918618
Time = 2.25e-06

Solving for density 

diagonal:  Solving for rho, Initial residual = 0, Final residual = 0, No Iterations 0
Solving for momentum 
 
diagonal:  Solving for rhoUx, Initial residual = 0, Final residual = 0, No Iterations 0
diagonal:  Solving for rhoUy, Initial residual = 0, Final residual = 0, No Iterations 0
Solving for energy 
diagonal:  Solving for rhoE, Initial residual = 0, Final residual = 0, No Iterations 0
Correcting thermo quantities 
calculateFromRhoE 
End of calculateFromRhoE 
ExecutionTime = 0.94 s  ClockTime = 1 s

p[1] 1145.43
T[1] 1000
rho[1] 0.001
e[1] 1.7096e+06
deltaT = 2.5e-08
Mean and max Courant Numbers = 0.00231662 0.919285
Time = 2.275e-06

Solving for density 

diagonal:  Solving for rho, Initial residual = 0, Final residual = 0, No Iterations 0
Solving for momentum 
 
diagonal:  Solving for rhoUx, Initial residual = 0, Final residual = 0, No Iterations 0
diagonal:  Solving for rhoUy, Initial residual = 0, Final residual = 0, No Iterations 0
Solving for energy 
diagonal:  Solving for rhoE, Initial residual = 0, Final residual = 0, No Iterations 0
Correcting thermo quantities 
calculateFromRhoE 
End of calculateFromRhoE 
ExecutionTime = 0.95 s  ClockTime = 1 s

p[1] 1145.43
T[1] 1000
rho[1] 0.001
e[1] 1.7096e+06
deltaT = 2.5e-08
Mean and max Courant Numbers = 0.00232791 0.920556
Time = 2.3e-06

Solving for density 

diagonal:  Solving for rho, Initial residual = 0, Final residual = 0, No Iterations 0
Solving for momentum 
 
diagonal:  Solving for rhoUx, Initial residual = 0, Final residual = 0, No Iterations 0
diagonal:  Solving for rhoUy, Initial residual = 0, Final residual = 0, No Iterations 0
Solving for energy 
diagonal:  Solving for rhoE, Initial residual = 0, Final residual = 0, No Iterations 0
Correcting thermo quantities 
calculateFromRhoE 
End of calculateFromRhoE 
ExecutionTime = 0.97 s  ClockTime = 1 s

p[1] 1145.43
T[1] 1000
rho[1] 0.001
e[1] 1.7096e+06
deltaT = 2.5e-08
Mean and max Courant Numbers = 0.00233931 0.923056
Time = 2.325e-06

Solving for density 

diagonal:  Solving for rho, Initial residual = 0, Final residual = 0, No Iterations 0
Solving for momentum 
 
diagonal:  Solving for rhoUx, Initial residual = 0, Final residual = 0, No Iterations 0
diagonal:  Solving for rhoUy, Initial residual = 0, Final residual = 0, No Iterations 0
Solving for energy 
diagonal:  Solving for rhoE, Initial residual = 0, Final residual = 0, No Iterations 0
Correcting thermo quantities 
calculateFromRhoE 
End of calculateFromRhoE 
ExecutionTime = 0.97 s  ClockTime = 1 s

p[1] 1145.43
T[1] 1000
rho[1] 0.001
e[1] 1.7096e+06
deltaT = 2.5e-08
Mean and max Courant Numbers = 0.00235082 0.92815
Time = 2.35e-06

Solving for density 

diagonal:  Solving for rho, Initial residual = 0, Final residual = 0, No Iterations 0
Solving for momentum 
 
diagonal:  Solving for rhoUx, Initial residual = 0, Final residual = 0, No Iterations 0
diagonal:  Solving for rhoUy, Initial residual = 0, Final residual = 0, No Iterations 0
Solving for energy 
diagonal:  Solving for rhoE, Initial residual = 0, Final residual = 0, No Iterations 0
Correcting thermo quantities 
calculateFromRhoE 
End of calculateFromRhoE 
ExecutionTime = 0.98 s  ClockTime = 1 s

p[1] 1145.43
T[1] 1000
rho[1] 0.001
e[1] 1.7096e+06
deltaT = 2.5e-08
Mean and max Courant Numbers = 0.00236245 0.938951
Time = 2.375e-06

Solving for density 

diagonal:  Solving for rho, Initial residual = 0, Final residual = 0, No Iterations 0
Solving for momentum 
 
diagonal:  Solving for rhoUx, Initial residual = 0, Final residual = 0, No Iterations 0
diagonal:  Solving for rhoUy, Initial residual = 0, Final residual = 0, No Iterations 0
Solving for energy 
diagonal:  Solving for rhoE, Initial residual = 0, Final residual = 0, No Iterations 0
Correcting thermo quantities 
calculateFromRhoE 
End of calculateFromRhoE 
ExecutionTime = 0.99 s  ClockTime = 1 s

p[1] 1145.43
T[1] 1000
rho[1] 0.001
e[1] 1.7096e+06
deltaT = 2.5e-08
Mean and max Courant Numbers = 0.00237415 0.962673
Time = 2.4e-06

Solving for density 

diagonal:  Solving for rho, Initial residual = 0, Final residual = 0, No Iterations 0
Solving for momentum 
 
diagonal:  Solving for rhoUx, Initial residual = 0, Final residual = 0, No Iterations 0
diagonal:  Solving for rhoUy, Initial residual = 0, Final residual = 0, No Iterations 0
Solving for energy 
diagonal:  Solving for rhoE, Initial residual = 0, Final residual = 0, No Iterations 0
Correcting thermo quantities 
calculateFromRhoE 
End of calculateFromRhoE 
ExecutionTime = 1 s  ClockTime = 1 s

p[1] 1145.43
T[1] 1000
rho[1] 0.001
e[1] 1.7096e+06
deltaT = 2.5e-08
Mean and max Courant Numbers = 0.0023859 1.01588
Time = 2.425e-06

Solving for density 

diagonal:  Solving for rho, Initial residual = 0, Final residual = 0, No Iterations 0
Solving for momentum 
 
diagonal:  Solving for rhoUx, Initial residual = 0, Final residual = 0, No Iterations 0
diagonal:  Solving for rhoUy, Initial residual = 0, Final residual = 0, No Iterations 0
Solving for energy 
diagonal:  Solving for rhoE, Initial residual = 0, Final residual = 0, No Iterations 0
Correcting thermo quantities 
calculateFromRhoE 
End of calculateFromRhoE 
ExecutionTime = 1.01 s  ClockTime = 1 s

p[1] 1145.43
T[1] 1000
rho[1] 0.001
e[1] 1.7096e+06
deltaT = 2.5e-08
Mean and max Courant Numbers = 0.00239767 1.21413
Time = 2.45e-06

Solving for density 

diagonal:  Solving for rho, Initial residual = 0, Final residual = 0, No Iterations 0
Solving for momentum 
 
diagonal:  Solving for rhoUx, Initial residual = 0, Final residual = 0, No Iterations 0
diagonal:  Solving for rhoUy, Initial residual = 0, Final residual = 0, No Iterations 0
Solving for energy 
diagonal:  Solving for rhoE, Initial residual = 0, Final residual = 0, No Iterations 0
Correcting thermo quantities 
calculateFromRhoE 
End of calculateFromRhoE 
ExecutionTime = 1.02 s  ClockTime = 1 s

p[1] 1145.43
T[1] 1000
rho[1] 0.001
e[1] 1.7096e+06
deltaT = 1.66667e-08
Mean and max Courant Numbers = 0.0016064 1.05617
Time = 2.46666666667e-06

Solving for density 

diagonal:  Solving for rho, Initial residual = 0, Final residual = 0, No Iterations 0
Solving for momentum 
 
diagonal:  Solving for rhoUx, Initial residual = 0, Final residual = 0, No Iterations 0
diagonal:  Solving for rhoUy, Initial residual = 0, Final residual = 0, No Iterations 0
Solving for energy 
diagonal:  Solving for rhoE, Initial residual = 0, Final residual = 0, No Iterations 0
Correcting thermo quantities 
calculateFromRhoE 
End of calculateFromRhoE 
ExecutionTime = 1.02 s  ClockTime = 1 s

p[1] 1145.43
T[1] 1000
rho[1] 0.001
e[1] 1.7096e+06
deltaT = 1.66667e-08
Mean and max Courant Numbers = 0.00161191 1.26926
Time = 2.48333333333e-06

Solving for density 

diagonal:  Solving for rho, Initial residual = 0, Final residual = 0, No Iterations 0
Solving for momentum 
 
diagonal:  Solving for rhoUx, Initial residual = 0, Final residual = 0, No Iterations 0
diagonal:  Solving for rhoUy, Initial residual = 0, Final residual = 0, No Iterations 0
Solving for energy 
diagonal:  Solving for rhoE, Initial residual = 0, Final residual = 0, No Iterations 0
Correcting thermo quantities 
calculateFromRhoE 
End of calculateFromRhoE 
ExecutionTime = 1.03 s  ClockTime = 1 s

p[1] 1145.43
T[1] 1000
rho[1] 0.001
e[1] 1.7096e+06
deltaT = 1.66667e-08
Mean and max Courant Numbers = 0.00161744 1.53841
Time = 2.5e-06

Solving for density 

diagonal:  Solving for rho, Initial residual = 0, Final residual = 0, No Iterations 0
Solving for momentum 
 
diagonal:  Solving for rhoUx, Initial residual = 0, Final residual = 0, No Iterations 0
diagonal:  Solving for rhoUy, Initial residual = 0, Final residual = 0, No Iterations 0
Solving for energy 
diagonal:  Solving for rhoE, Initial residual = 0, Final residual = 0, No Iterations 0
Correcting thermo quantities 
calculateFromRhoE 
End of calculateFromRhoE 
ExecutionTime = 1.05 s  ClockTime = 1 s

p[1] 1145.43
T[1] 1000
rho[1] 0.001
e[1] 1.7096e+06
deltaT = 1e-08
Mean and max Courant Numbers = 0.000973791 1.09043
Time = 2.51e-06

Solving for density 

diagonal:  Solving for rho, Initial residual = 0, Final residual = 0, No Iterations 0
Solving for momentum 
 
diagonal:  Solving for rhoUx, Initial residual = 0, Final residual = 0, No Iterations 0
diagonal:  Solving for rhoUy, Initial residual = 0, Final residual = 0, No Iterations 0
Solving for energy 
diagonal:  Solving for rhoE, Initial residual = 0, Final residual = 0, No Iterations 0
Correcting thermo quantities 
calculateFromRhoE 
End of calculateFromRhoE 
ExecutionTime = 1.05 s  ClockTime = 1 s

p[1] 1145.43
T[1] 1000
rho[1] 0.001
e[1] 1.7096e+06
deltaT = 8.18182e-09
Mean and max Courant Numbers = 0.000798417 0.987007
Time = 2.51818181818e-06

Solving for density 

diagonal:  Solving for rho, Initial residual = 0, Final residual = 0, No Iterations 0
Solving for momentum 
 
diagonal:  Solving for rhoUx, Initial residual = 0, Final residual = 0, No Iterations 0
diagonal:  Solving for rhoUy, Initial residual = 0, Final residual = 0, No Iterations 0
Solving for energy 
diagonal:  Solving for rhoE, Initial residual = 0, Final residual = 0, No Iterations 0
Correcting thermo quantities 
calculateFromRhoE 
End of calculateFromRhoE 
ExecutionTime = 1.06 s  ClockTime = 1 s

p[1] 1145.43
T[1] 1000
rho[1] 0.001
e[1] 1.7096e+06
deltaT = 7.43802e-09
Mean and max Courant Numbers = 0.000727096 0.986575
Time = 2.52561983471e-06

Solving for density 

diagonal:  Solving for rho, Initial residual = 0, Final residual = 0, No Iterations 0
Solving for momentum 
 
diagonal:  Solving for rhoUx, Initial residual = 0, Final residual = 0, No Iterations 0
diagonal:  Solving for rhoUy, Initial residual = 0, Final residual = 0, No Iterations 0
Solving for energy 
diagonal:  Solving for rhoE, Initial residual = 0, Final residual = 0, No Iterations 0
Correcting thermo quantities 
calculateFromRhoE 
End of calculateFromRhoE 
ExecutionTime = 1.07 s  ClockTime = 1 s

p[1] 1145.43
T[1] 1000
rho[1] 0.001
e[1] 1.7096e+06
deltaT = 6.76183e-09
Mean and max Courant Numbers = 0.00066205 0.93044
Time = 2.53238166792e-06

Solving for density 

diagonal:  Solving for rho, Initial residual = 0, Final residual = 0, No Iterations 0
Solving for momentum 
 
diagonal:  Solving for rhoUx, Initial residual = 0, Final residual = 0, No Iterations 0
diagonal:  Solving for rhoUy, Initial residual = 0, Final residual = 0, No Iterations 0
Solving for energy 
diagonal:  Solving for rhoE, Initial residual = 0, Final residual = 0, No Iterations 0
Correcting thermo quantities 
calculateFromRhoE 
End of calculateFromRhoE 
ExecutionTime = 1.07 s  ClockTime = 1 s

p[1] 1145.43
T[1] 1000
rho[1] 0.001
e[1] 1.7096e+06
deltaT = 6.76183e-09
Mean and max Courant Numbers = 0.000663015 1.0239
Time = 2.53914350113e-06

Solving for density 

diagonal:  Solving for rho, Initial residual = 0, Final residual = 0, No Iterations 0
Solving for momentum 
 
diagonal:  Solving for rhoUx, Initial residual = 0, Final residual = 0, No Iterations 0
diagonal:  Solving for rhoUy, Initial residual = 0, Final residual = 0, No Iterations 0
Solving for energy 
diagonal:  Solving for rhoE, Initial residual = 0, Final residual = 0, No Iterations 0
Correcting thermo quantities 
calculateFromRhoE 
End of calculateFromRhoE 
ExecutionTime = 1.08 s  ClockTime = 1 s

p[1] 1145.43
T[1] 1000
rho[1] 0.001
e[1] 1.7096e+06
deltaT = 6.08565e-09
Mean and max Courant Numbers = 0.00059758 0.948237
Time = 2.54522915101e-06

Solving for density 

diagonal:  Solving for rho, Initial residual = 0, Final residual = 0, No Iterations 0
Solving for momentum 
 
diagonal:  Solving for rhoUx, Initial residual = 0, Final residual = 0, No Iterations 0
diagonal:  Solving for rhoUy, Initial residual = 0, Final residual = 0, No Iterations 0
Solving for energy 
diagonal:  Solving for rhoE, Initial residual = 0, Final residual = 0, No Iterations 0
Correcting thermo quantities 
calculateFromRhoE 
End of calculateFromRhoE 
ExecutionTime = 1.09 s  ClockTime = 1 s

p[1] 1145.43
T[1] 1000
rho[1] 0.001
e[1] 1.7096e+06
deltaT = 6.08565e-09
Mean and max Courant Numbers = 0.000598366 1.00138
Time = 2.5513148009e-06

Solving for density 

diagonal:  Solving for rho, Initial residual = 0, Final residual = 0, No Iterations 0
Solving for momentum 
 
diagonal:  Solving for rhoUx, Initial residual = 0, Final residual = 0, No Iterations 0
diagonal:  Solving for rhoUy, Initial residual = 0, Final residual = 0, No Iterations 0
Solving for energy 
diagonal:  Solving for rhoE, Initial residual = 0, Final residual = 0, No Iterations 0
Correcting thermo quantities 
calculateFromRhoE 
End of calculateFromRhoE 
ExecutionTime = 1.09 s  ClockTime = 1 s

p[1] 1145.43
T[1] 1000
rho[1] 0.001
e[1] 1.7096e+06
deltaT = 5.40947e-09
Mean and max Courant Numbers = 0.000532584 1.06706
Time = 2.55672426747e-06

Solving for density 

diagonal:  Solving for rho, Initial residual = 0, Final residual = 0, No Iterations 0
Solving for momentum 
 
diagonal:  Solving for rhoUx, Initial residual = 0, Final residual = 0, No Iterations 0
diagonal:  Solving for rhoUy, Initial residual = 0, Final residual = 0, No Iterations 0
Solving for energy 
diagonal:  Solving for rhoE, Initial residual = 0, Final residual = 0, No Iterations 0
Correcting thermo quantities 
calculateFromRhoE 
End of calculateFromRhoE 
ExecutionTime = 1.1 s  ClockTime = 1 s

p[1] 1145.43
T[1] 1000
rho[1] 0.001
e[1] 1.7096e+06
deltaT = 4.80841e-09
Mean and max Courant Numbers = 0.000473966 0.93702
Time = 2.56153268219e-06

Solving for density 

diagonal:  Solving for rho, Initial residual = 0, Final residual = 0, No Iterations 0
Solving for momentum 
 
diagonal:  Solving for rhoUx, Initial residual = 0, Final residual = 0, No Iterations 0
diagonal:  Solving for rhoUy, Initial residual = 0, Final residual = 0, No Iterations 0
Solving for energy 
diagonal:  Solving for rhoE, Initial residual = 0, Final residual = 0, No Iterations 0
Correcting thermo quantities 
calculateFromRhoE 
End of calculateFromRhoE 
ExecutionTime = 1.1 s  ClockTime = 1 s

p[1] 1145.43
T[1] 1000
rho[1] 0.001
e[1] 1.7096e+06
deltaT = 4.80841e-09
Mean and max Courant Numbers = 0.000474465 0.896306
Time = 2.56634109692e-06

Solving for density 

diagonal:  Solving for rho, Initial residual = 0, Final residual = 0, No Iterations 0
Solving for momentum 
 
diagonal:  Solving for rhoUx, Initial residual = 0, Final residual = 0, No Iterations 0
diagonal:  Solving for rhoUy, Initial residual = 0, Final residual = 0, No Iterations 0
Solving for energy 
diagonal:  Solving for rhoE, Initial residual = 0, Final residual = 0, No Iterations 0
Correcting thermo quantities 
calculateFromRhoE 
End of calculateFromRhoE 
ExecutionTime = 1.11 s  ClockTime = 1 s

p[1] 1145.43
T[1] 1000
rho[1] 0.001
e[1] 1.7096e+06
deltaT = 4.80841e-09
Mean and max Courant Numbers = 0.000474976 1.46256
Time = 2.57114951165e-06

Solving for density 

diagonal:  Solving for rho, Initial residual = 0, Final residual = 0, No Iterations 0
Solving for momentum 
 
diagonal:  Solving for rhoUx, Initial residual = 0, Final residual = 0, No Iterations 0
diagonal:  Solving for rhoUy, Initial residual = 0, Final residual = 0, No Iterations 0
Solving for energy 
diagonal:  Solving for rhoE, Initial residual = 0, Final residual = 0, No Iterations 0
Correcting thermo quantities 
calculateFromRhoE 
