/*---------------------------------------------------------------------------*\
| =========                 |                                                 |
| \\      /  F ield         | OpenFOAM: The Open Source CFD Toolbox           |
|  \\    /   O peration     | Version:  2212                                  |
|   \\  /    A nd           | Website:  www.openfoam.com                      |
|    \\/     M anipulation  |                                                 |
\*---------------------------------------------------------------------------*/
Build  : v2212 OPENFOAM=2212 patch=230110 version=v2212
Arch   : "LSB;label=32;scalar=64"
Exec   : blockMesh
Date   : May 14 2023
Time   : 15:28:41
Host   : nuen-mj0jdqvm.engr.tamu.edu
PID    : 3949145
I/O    : uncollated
Case   : /home/grads/n/nahom.habtemariam/OpenFOAM/nahom.habtemariam-v2212/OpenFOAM-v2212/tutorials/compressible/rhoCentralFoam/shockTube
nProcs : 1
trapFpe: Floating point exception trapping enabled (FOAM_SIGFPE).
fileModificationChecking : Monitoring run-time modified files using timeStampMaster (fileModificationSkew 5, maxFileModificationPolls 20)
allowSystemOperations : Allowing user-supplied system call operations

// * * * * * * * * * * * * * * * * * * * * * * * * * * * * * * * * * * * * * //
Create time

Creating block mesh from "system/blockMeshDict"
Creating block edges
No non-planar block faces defined
Creating topology blocks

Creating topology patches - from boundary section

Creating block mesh topology

Check topology

	Basic statistics
		Number of internal faces : 0
		Number of boundary faces : 6
		Number of defined boundary faces : 6
		Number of undefined boundary faces : 0
	Checking patch -> block consistency

Creating block offsets
Creating merge list (topological search)...

Creating polyMesh from blockMesh
Creating patches
Creating cells
Creating points with scale (1 1 1)
    Block 0 cell size :
        i : 0.1 .. 0.1
        j : 2 .. 2
        k : 2 .. 2

No patch pairs to merge

Writing polyMesh with 0 cellZones
----------------
Mesh Information
----------------
  boundingBox: (-5 -1 -1) (5 1 1)
  nPoints: 404
  nCells: 100
  nFaces: 501
  nInternalFaces: 99
----------------
Patches
----------------
  patch 0 (start: 99 size: 2) name: sides
  patch 1 (start: 101 size: 400) name: empty

End

