/*---------------------------------------------------------------------------*\
| =========                 |                                                 |
| \\      /  F ield         | OpenFOAM: The Open Source CFD Toolbox           |
|  \\    /   O peration     | Version:  2212                                  |
|   \\  /    A nd           | Website:  www.openfoam.com                      |
|    \\/     M anipulation  |                                                 |
\*---------------------------------------------------------------------------*/
Build  : v2212 OPENFOAM=2212 patch=230110 version=v2212
Arch   : "LSB;label=32;scalar=64"
Exec   : setFields
Date   : May 14 2023
Time   : 15:28:41
Host   : nuen-mj0jdqvm.engr.tamu.edu
PID    : 3949146
I/O    : uncollated
Case   : /home/grads/n/nahom.habtemariam/OpenFOAM/nahom.habtemariam-v2212/OpenFOAM-v2212/tutorials/compressible/rhoCentralFoam/shockTube
nProcs : 1
trapFpe: Floating point exception trapping enabled (FOAM_SIGFPE).
fileModificationChecking : Monitoring run-time modified files using timeStampMaster (fileModificationSkew 5, maxFileModificationPolls 20)
allowSystemOperations : Allowing user-supplied system call operations

// * * * * * * * * * * * * * * * * * * * * * * * * * * * * * * * * * * * * * //
Create time

Create mesh for time = 0

Reading setFieldsDict

Setting volume field default values
    - set internal values of volVectorField: U = (0 0 0)
    - set internal values of volScalarField: T = 348.432
    - set internal values of volScalarField: p = 100000

Setting field region values

    Adding cells with centre within boxes 1((0 -1 -1) (5 1 1))
    Selected 50/100 cells
    - set internal values of volScalarField: T = 278.746
    - set internal values of volScalarField: p = 10000

End

