/*---------------------------------------------------------------------------*\
| =========                 |                                                 |
| \\      /  F ield         | OpenFOAM: The Open Source CFD Toolbox           |
|  \\    /   O peration     | Version:  2212                                  |
|   \\  /    A nd           | Website:  www.openfoam.com                      |
|    \\/     M anipulation  |                                                 |
\*---------------------------------------------------------------------------*/
Build  : v2212 OPENFOAM=2212 patch=230110 version=v2212
Arch   : "LSB;label=32;scalar=64"
Exec   : rhoCentralFoam
Date   : May 14 2023
Time   : 15:28:41
Host   : nuen-mj0jdqvm.engr.tamu.edu
PID    : 3949152
I/O    : uncollated
Case   : /home/grads/n/nahom.habtemariam/OpenFOAM/nahom.habtemariam-v2212/OpenFOAM-v2212/tutorials/compressible/rhoCentralFoam/shockTube
nProcs : 1
trapFpe: Floating point exception trapping enabled (FOAM_SIGFPE).
fileModificationChecking : Monitoring run-time modified files using timeStampMaster (fileModificationSkew 5, maxFileModificationPolls 20)
allowSystemOperations : Allowing user-supplied system call operations

// * * * * * * * * * * * * * * * * * * * * * * * * * * * * * * * * * * * * * //
Create time

Create mesh for time = 0

Reading thermophysical properties

Selecting thermodynamics package 
{
    type            hePsiThermo;
    mixture         pureMixture;
    transport       const;
    thermo          hConst;
    equationOfState perfectGas;
    specie          specie;
    energy          sensibleInternalEnergy;
}

Reading field U

Creating turbulence model

Selecting turbulence model type laminar
Selecting laminar stress model Stokes
fluxScheme: Kurganov

Starting time loop

deltaT = 1.20048e-06
Mean and max Courant Numbers = 0.00212906 0.00224645
Time = 1.20048e-06

diagonal:  Solving for rho, Initial residual = 0, Final residual = 0, No Iterations 0
diagonal:  Solving for rhoUx, Initial residual = 0, Final residual = 0, No Iterations 0
diagonal:  Solving for rhoE, Initial residual = 0, Final residual = 0, No Iterations 0
ExecutionTime = 0 s  ClockTime = 0 s

deltaT = 1.44127e-06
Mean and max Courant Numbers = 0.00255662 0.00269989
Time = 2.64175e-06

diagonal:  Solving for rho, Initial residual = 0, Final residual = 0, No Iterations 0
diagonal:  Solving for rhoUx, Initial residual = 0, Final residual = 0, No Iterations 0
diagonal:  Solving for rhoE, Initial residual = 0, Final residual = 0, No Iterations 0
ExecutionTime = 0 s  ClockTime = 0 s

deltaT = 1.72852e-06
Mean and max Courant Numbers = 0.00306693 0.00324211
Time = 4.37027e-06

diagonal:  Solving for rho, Initial residual = 0, Final residual = 0, No Iterations 0
diagonal:  Solving for rhoUx, Initial residual = 0, Final residual = 0, No Iterations 0
diagonal:  Solving for rhoE, Initial residual = 0, Final residual = 0, No Iterations 0
ExecutionTime = 0 s  ClockTime = 0 s

deltaT = 2.07423e-06
Mean and max Courant Numbers = 0.00368142 0.00389649
Time = 6.4445e-06

diagonal:  Solving for rho, Initial residual = 0, Final residual = 0, No Iterations 0
diagonal:  Solving for rhoUx, Initial residual = 0, Final residual = 0, No Iterations 0
diagonal:  Solving for rhoE, Initial residual = 0, Final residual = 0, No Iterations 0
ExecutionTime = 0 s  ClockTime = 0 s

deltaT = 2.49011e-06
Mean and max Courant Numbers = 0.00442114 0.00468635
Time = 8.93462e-06

diagonal:  Solving for rho, Initial residual = 0, Final residual = 0, No Iterations 0
diagonal:  Solving for rhoUx, Initial residual = 0, Final residual = 0, No Iterations 0
diagonal:  Solving for rhoE, Initial residual = 0, Final residual = 0, No Iterations 0
ExecutionTime = 0 s  ClockTime = 0 s

deltaT = 2.98514e-06
Mean and max Courant Numbers = 0.00530233 0.00568565
Time = 1.19198e-05

diagonal:  Solving for rho, Initial residual = 0, Final residual = 0, No Iterations 0
diagonal:  Solving for rhoUx, Initial residual = 0, Final residual = 0, No Iterations 0
diagonal:  Solving for rhoE, Initial residual = 0, Final residual = 0, No Iterations 0
ExecutionTime = 0.01 s  ClockTime = 0 s

deltaT = 3.58e-06
Mean and max Courant Numbers = 0.00636226 0.00697783
Time = 1.54998e-05

diagonal:  Solving for rho, Initial residual = 0, Final residual = 0, No Iterations 0
diagonal:  Solving for rhoUx, Initial residual = 0, Final residual = 0, No Iterations 0
diagonal:  Solving for rhoE, Initial residual = 0, Final residual = 0, No Iterations 0
ExecutionTime = 0.01 s  ClockTime = 0 s

deltaT = 4.29913e-06
Mean and max Courant Numbers = 0.00764566 0.00864077
Time = 1.97989e-05

diagonal:  Solving for rho, Initial residual = 0, Final residual = 0, No Iterations 0
diagonal:  Solving for rhoUx, Initial residual = 0, Final residual = 0, No Iterations 0
diagonal:  Solving for rhoE, Initial residual = 0, Final residual = 0, No Iterations 0
ExecutionTime = 0.01 s  ClockTime = 0 s

deltaT = 5.15895e-06
Mean and max Courant Numbers = 0.00918254 0.0107447
Time = 2.49578e-05

diagonal:  Solving for rho, Initial residual = 0, Final residual = 0, No Iterations 0
diagonal:  Solving for rhoUx, Initial residual = 0, Final residual = 0, No Iterations 0
diagonal:  Solving for rhoE, Initial residual = 0, Final residual = 0, No Iterations 0
ExecutionTime = 0.01 s  ClockTime = 0 s

deltaT = 6.17115e-06
Mean and max Courant Numbers = 0.010995 0.0133748
Time = 3.1129e-05

diagonal:  Solving for rho, Initial residual = 0, Final residual = 0, No Iterations 0
diagonal:  Solving for rhoUx, Initial residual = 0, Final residual = 0, No Iterations 0
diagonal:  Solving for rhoE, Initial residual = 0, Final residual = 0, No Iterations 0
ExecutionTime = 0.01 s  ClockTime = 0 s

deltaT = 7.39596e-06
Mean and max Courant Numbers = 0.013192 0.0167465
Time = 3.85249e-05

diagonal:  Solving for rho, Initial residual = 0, Final residual = 0, No Iterations 0
diagonal:  Solving for rhoUx, Initial residual = 0, Final residual = 0, No Iterations 0
diagonal:  Solving for rhoE, Initial residual = 0, Final residual = 0, No Iterations 0
ExecutionTime = 0.01 s  ClockTime = 0 s

deltaT = 8.90255e-06
Mean and max Courant Numbers = 0.0158995 0.0211344
Time = 4.74275e-05

diagonal:  Solving for rho, Initial residual = 0, Final residual = 0, No Iterations 0
diagonal:  Solving for rhoUx, Initial residual = 0, Final residual = 0, No Iterations 0
diagonal:  Solving for rhoE, Initial residual = 0, Final residual = 0, No Iterations 0
ExecutionTime = 0.01 s  ClockTime = 0 s

deltaT = 1.07031e-05
Mean and max Courant Numbers = 0.0191424 0.0267136
Time = 5.81306e-05

diagonal:  Solving for rho, Initial residual = 0, Final residual = 0, No Iterations 0
diagonal:  Solving for rhoUx, Initial residual = 0, Final residual = 0, No Iterations 0
diagonal:  Solving for rhoE, Initial residual = 0, Final residual = 0, No Iterations 0
ExecutionTime = 0.01 s  ClockTime = 0 s

deltaT = 1.29023e-05
Mean and max Courant Numbers = 0.0231115 0.0338922
Time = 7.10329e-05

diagonal:  Solving for rho, Initial residual = 0, Final residual = 0, No Iterations 0
diagonal:  Solving for rhoUx, Initial residual = 0, Final residual = 0, No Iterations 0
diagonal:  Solving for rhoE, Initial residual = 0, Final residual = 0, No Iterations 0
ExecutionTime = 0.01 s  ClockTime = 0 s

deltaT = 1.54828e-05
Mean and max Courant Numbers = 0.027779 0.0427543
Time = 8.65157e-05

diagonal:  Solving for rho, Initial residual = 0, Final residual = 0, No Iterations 0
diagonal:  Solving for rhoUx, Initial residual = 0, Final residual = 0, No Iterations 0
diagonal:  Solving for rhoE, Initial residual = 0, Final residual = 0, No Iterations 0
ExecutionTime = 0.01 s  ClockTime = 0 s

deltaT = 1.86425e-05
Mean and max Courant Numbers = 0.0335034 0.0538796
Time = 0.000105158

diagonal:  Solving for rho, Initial residual = 0, Final residual = 0, No Iterations 0
diagonal:  Solving for rhoUx, Initial residual = 0, Final residual = 0, No Iterations 0
diagonal:  Solving for rhoE, Initial residual = 0, Final residual = 0, No Iterations 0
ExecutionTime = 0.01 s  ClockTime = 0 s

deltaT = 2.2371e-05
Mean and max Courant Numbers = 0.0402692 0.0671571
Time = 0.000127529

diagonal:  Solving for rho, Initial residual = 0, Final residual = 0, No Iterations 0
diagonal:  Solving for rhoUx, Initial residual = 0, Final residual = 0, No Iterations 0
diagonal:  Solving for rhoE, Initial residual = 0, Final residual = 0, No Iterations 0
ExecutionTime = 0.01 s  ClockTime = 0 s

deltaT = 2.64385e-05
Mean and max Courant Numbers = 0.0476654 0.0815981
Time = 0.000153968

diagonal:  Solving for rho, Initial residual = 0, Final residual = 0, No Iterations 0
diagonal:  Solving for rhoUx, Initial residual = 0, Final residual = 0, No Iterations 0
diagonal:  Solving for rhoE, Initial residual = 0, Final residual = 0, No Iterations 0
ExecutionTime = 0.01 s  ClockTime = 0 s

deltaT = 3.13345e-05
Mean and max Courant Numbers = 0.0565822 0.0984838
Time = 0.000185302

diagonal:  Solving for rho, Initial residual = 0, Final residual = 0, No Iterations 0
diagonal:  Solving for rhoUx, Initial residual = 0, Final residual = 0, No Iterations 0
diagonal:  Solving for rhoE, Initial residual = 0, Final residual = 0, No Iterations 0
ExecutionTime = 0.01 s  ClockTime = 0 s

deltaT = 3.70317e-05
Mean and max Courant Numbers = 0.0669885 0.117439
Time = 0.000222334

diagonal:  Solving for rho, Initial residual = 0, Final residual = 0, No Iterations 0
diagonal:  Solving for rhoUx, Initial residual = 0, Final residual = 0, No Iterations 0
diagonal:  Solving for rhoE, Initial residual = 0, Final residual = 0, No Iterations 0
ExecutionTime = 0.01 s  ClockTime = 0 s

deltaT = 4.32037e-05
Mean and max Courant Numbers = 0.0783181 0.139116
Time = 0.000265538

diagonal:  Solving for rho, Initial residual = 0, Final residual = 0, No Iterations 0
diagonal:  Solving for rhoUx, Initial residual = 0, Final residual = 0, No Iterations 0
diagonal:  Solving for rhoE, Initial residual = 0, Final residual = 0, No Iterations 0
ExecutionTime = 0.01 s  ClockTime = 0 s

deltaT = 4.89642e-05
Mean and max Courant Numbers = 0.0889777 0.164753
Time = 0.000314502

diagonal:  Solving for rho, Initial residual = 0, Final residual = 0, No Iterations 0
diagonal:  Solving for rhoUx, Initial residual = 0, Final residual = 0, No Iterations 0
diagonal:  Solving for rhoE, Initial residual = 0, Final residual = 0, No Iterations 0
ExecutionTime = 0.01 s  ClockTime = 0 s

deltaT = 5.71248e-05
Mean and max Courant Numbers = 0.104067 0.198538
Time = 0.000371627

diagonal:  Solving for rho, Initial residual = 0, Final residual = 0, No Iterations 0
diagonal:  Solving for rhoUx, Initial residual = 0, Final residual = 0, No Iterations 0
diagonal:  Solving for rhoE, Initial residual = 0, Final residual = 0, No Iterations 0
ExecutionTime = 0.01 s  ClockTime = 0 s

deltaT = 5.71248e-05
Mean and max Courant Numbers = 0.104345 0.200904
Time = 0.000428752

diagonal:  Solving for rho, Initial residual = 0, Final residual = 0, No Iterations 0
diagonal:  Solving for rhoUx, Initial residual = 0, Final residual = 0, No Iterations 0
diagonal:  Solving for rhoE, Initial residual = 0, Final residual = 0, No Iterations 0
ExecutionTime = 0.01 s  ClockTime = 0 s

deltaT = 5.71248e-05
Mean and max Courant Numbers = 0.104637 0.200327
Time = 0.000485876

diagonal:  Solving for rho, Initial residual = 0, Final residual = 0, No Iterations 0
diagonal:  Solving for rhoUx, Initial residual = 0, Final residual = 0, No Iterations 0
diagonal:  Solving for rhoE, Initial residual = 0, Final residual = 0, No Iterations 0
ExecutionTime = 0.01 s  ClockTime = 0 s

deltaT = 5.71248e-05
Mean and max Courant Numbers = 0.104942 0.198394
Time = 0.000543001

diagonal:  Solving for rho, Initial residual = 0, Final residual = 0, No Iterations 0
diagonal:  Solving for rhoUx, Initial residual = 0, Final residual = 0, No Iterations 0
diagonal:  Solving for rhoE, Initial residual = 0, Final residual = 0, No Iterations 0
ExecutionTime = 0.01 s  ClockTime = 0 s

deltaT = 5.71248e-05
Mean and max Courant Numbers = 0.105251 0.196563
Time = 0.000600126

diagonal:  Solving for rho, Initial residual = 0, Final residual = 0, No Iterations 0
diagonal:  Solving for rhoUx, Initial residual = 0, Final residual = 0, No Iterations 0
diagonal:  Solving for rhoE, Initial residual = 0, Final residual = 0, No Iterations 0
ExecutionTime = 0.01 s  ClockTime = 0 s

deltaT = 5.71248e-05
Mean and max Courant Numbers = 0.105581 0.195417
Time = 0.000657251

diagonal:  Solving for rho, Initial residual = 0, Final residual = 0, No Iterations 0
diagonal:  Solving for rhoUx, Initial residual = 0, Final residual = 0, No Iterations 0
diagonal:  Solving for rhoE, Initial residual = 0, Final residual = 0, No Iterations 0
ExecutionTime = 0.01 s  ClockTime = 0 s

deltaT = 5.71248e-05
Mean and max Courant Numbers = 0.105929 0.196601
Time = 0.000714376

diagonal:  Solving for rho, Initial residual = 0, Final residual = 0, No Iterations 0
diagonal:  Solving for rhoUx, Initial residual = 0, Final residual = 0, No Iterations 0
diagonal:  Solving for rhoE, Initial residual = 0, Final residual = 0, No Iterations 0
ExecutionTime = 0.01 s  ClockTime = 0 s

deltaT = 5.71248e-05
Mean and max Courant Numbers = 0.106251 0.196188
Time = 0.000771501

diagonal:  Solving for rho, Initial residual = 0, Final residual = 0, No Iterations 0
diagonal:  Solving for rhoUx, Initial residual = 0, Final residual = 0, No Iterations 0
diagonal:  Solving for rhoE, Initial residual = 0, Final residual = 0, No Iterations 0
ExecutionTime = 0.01 s  ClockTime = 0 s

deltaT = 5.71248e-05
Mean and max Courant Numbers = 0.106575 0.194648
Time = 0.000828625

diagonal:  Solving for rho, Initial residual = 0, Final residual = 0, No Iterations 0
diagonal:  Solving for rhoUx, Initial residual = 0, Final residual = 0, No Iterations 0
diagonal:  Solving for rhoE, Initial residual = 0, Final residual = 0, No Iterations 0
ExecutionTime = 0.01 s  ClockTime = 0 s

deltaT = 5.71248e-05
Mean and max Courant Numbers = 0.106941 0.198591
Time = 0.00088575

diagonal:  Solving for rho, Initial residual = 0, Final residual = 0, No Iterations 0
diagonal:  Solving for rhoUx, Initial residual = 0, Final residual = 0, No Iterations 0
diagonal:  Solving for rhoE, Initial residual = 0, Final residual = 0, No Iterations 0
ExecutionTime = 0.01 s  ClockTime = 0 s

deltaT = 5.71248e-05
Mean and max Courant Numbers = 0.107323 0.199223
Time = 0.000942875

diagonal:  Solving for rho, Initial residual = 0, Final residual = 0, No Iterations 0
diagonal:  Solving for rhoUx, Initial residual = 0, Final residual = 0, No Iterations 0
diagonal:  Solving for rhoE, Initial residual = 0, Final residual = 0, No Iterations 0
ExecutionTime = 0.01 s  ClockTime = 1 s

deltaT = 5.71248e-05
Mean and max Courant Numbers = 0.107662 0.197686
Time = 0.001

diagonal:  Solving for rho, Initial residual = 0, Final residual = 0, No Iterations 0
diagonal:  Solving for rhoUx, Initial residual = 0, Final residual = 0, No Iterations 0
diagonal:  Solving for rhoE, Initial residual = 0, Final residual = 0, No Iterations 0
ExecutionTime = 0.01 s  ClockTime = 1 s

deltaT = 5.88235e-05
Mean and max Courant Numbers = 0.111211 0.208677
Time = 0.00105882

diagonal:  Solving for rho, Initial residual = 0, Final residual = 0, No Iterations 0
diagonal:  Solving for rhoUx, Initial residual = 0, Final residual = 0, No Iterations 0
diagonal:  Solving for rhoE, Initial residual = 0, Final residual = 0, No Iterations 0
ExecutionTime = 0.01 s  ClockTime = 1 s

deltaT = 5.53633e-05
Mean and max Courant Numbers = 0.105055 0.198007
Time = 0.00111419

diagonal:  Solving for rho, Initial residual = 0, Final residual = 0, No Iterations 0
diagonal:  Solving for rhoUx, Initial residual = 0, Final residual = 0, No Iterations 0
diagonal:  Solving for rhoE, Initial residual = 0, Final residual = 0, No Iterations 0
ExecutionTime = 0.01 s  ClockTime = 1 s

deltaT = 5.53633e-05
Mean and max Courant Numbers = 0.105396 0.196975
Time = 0.00116955

diagonal:  Solving for rho, Initial residual = 0, Final residual = 0, No Iterations 0
diagonal:  Solving for rhoUx, Initial residual = 0, Final residual = 0, No Iterations 0
diagonal:  Solving for rhoE, Initial residual = 0, Final residual = 0, No Iterations 0
ExecutionTime = 0.01 s  ClockTime = 1 s

deltaT = 5.53633e-05
Mean and max Courant Numbers = 0.105699 0.198702
Time = 0.00122491

diagonal:  Solving for rho, Initial residual = 0, Final residual = 0, No Iterations 0
diagonal:  Solving for rhoUx, Initial residual = 0, Final residual = 0, No Iterations 0
diagonal:  Solving for rhoE, Initial residual = 0, Final residual = 0, No Iterations 0
ExecutionTime = 0.01 s  ClockTime = 1 s

deltaT = 5.53633e-05
Mean and max Courant Numbers = 0.106035 0.200399
Time = 0.00128028

diagonal:  Solving for rho, Initial residual = 0, Final residual = 0, No Iterations 0
diagonal:  Solving for rhoUx, Initial residual = 0, Final residual = 0, No Iterations 0
diagonal:  Solving for rhoE, Initial residual = 0, Final residual = 0, No Iterations 0
ExecutionTime = 0.01 s  ClockTime = 1 s

deltaT = 5.53633e-05
Mean and max Courant Numbers = 0.106393 0.199888
Time = 0.00133564

diagonal:  Solving for rho, Initial residual = 0, Final residual = 0, No Iterations 0
diagonal:  Solving for rhoUx, Initial residual = 0, Final residual = 0, No Iterations 0
diagonal:  Solving for rhoE, Initial residual = 0, Final residual = 0, No Iterations 0
ExecutionTime = 0.01 s  ClockTime = 1 s

deltaT = 5.53633e-05
Mean and max Courant Numbers = 0.106721 0.200069
Time = 0.001391

diagonal:  Solving for rho, Initial residual = 0, Final residual = 0, No Iterations 0
diagonal:  Solving for rhoUx, Initial residual = 0, Final residual = 0, No Iterations 0
diagonal:  Solving for rhoE, Initial residual = 0, Final residual = 0, No Iterations 0
ExecutionTime = 0.01 s  ClockTime = 1 s

deltaT = 5.53633e-05
Mean and max Courant Numbers = 0.107064 0.202409
Time = 0.00144637

diagonal:  Solving for rho, Initial residual = 0, Final residual = 0, No Iterations 0
diagonal:  Solving for rhoUx, Initial residual = 0, Final residual = 0, No Iterations 0
diagonal:  Solving for rhoE, Initial residual = 0, Final residual = 0, No Iterations 0
ExecutionTime = 0.01 s  ClockTime = 1 s

deltaT = 5.53633e-05
Mean and max Courant Numbers = 0.107429 0.201472
Time = 0.00150173

diagonal:  Solving for rho, Initial residual = 0, Final residual = 0, No Iterations 0
diagonal:  Solving for rhoUx, Initial residual = 0, Final residual = 0, No Iterations 0
diagonal:  Solving for rhoE, Initial residual = 0, Final residual = 0, No Iterations 0
ExecutionTime = 0.01 s  ClockTime = 1 s

deltaT = 5.53633e-05
Mean and max Courant Numbers = 0.107776 0.200698
Time = 0.00155709

diagonal:  Solving for rho, Initial residual = 0, Final residual = 0, No Iterations 0
diagonal:  Solving for rhoUx, Initial residual = 0, Final residual = 0, No Iterations 0
diagonal:  Solving for rhoE, Initial residual = 0, Final residual = 0, No Iterations 0
ExecutionTime = 0.01 s  ClockTime = 1 s

deltaT = 5.53633e-05
Mean and max Courant Numbers = 0.108119 0.204086
Time = 0.00161246

diagonal:  Solving for rho, Initial residual = 0, Final residual = 0, No Iterations 0
diagonal:  Solving for rhoUx, Initial residual = 0, Final residual = 0, No Iterations 0
diagonal:  Solving for rhoE, Initial residual = 0, Final residual = 0, No Iterations 0
ExecutionTime = 0.01 s  ClockTime = 1 s

deltaT = 5.53633e-05
Mean and max Courant Numbers = 0.108503 0.202866
Time = 0.00166782

diagonal:  Solving for rho, Initial residual = 0, Final residual = 0, No Iterations 0
diagonal:  Solving for rhoUx, Initial residual = 0, Final residual = 0, No Iterations 0
diagonal:  Solving for rhoE, Initial residual = 0, Final residual = 0, No Iterations 0
ExecutionTime = 0.01 s  ClockTime = 1 s

deltaT = 5.53633e-05
Mean and max Courant Numbers = 0.10884 0.200422
Time = 0.00172318

diagonal:  Solving for rho, Initial residual = 0, Final residual = 0, No Iterations 0
diagonal:  Solving for rhoUx, Initial residual = 0, Final residual = 0, No Iterations 0
diagonal:  Solving for rhoE, Initial residual = 0, Final residual = 0, No Iterations 0
ExecutionTime = 0.01 s  ClockTime = 1 s

deltaT = 5.53633e-05
Mean and max Courant Numbers = 0.109143 0.20376
Time = 0.00177855

diagonal:  Solving for rho, Initial residual = 0, Final residual = 0, No Iterations 0
diagonal:  Solving for rhoUx, Initial residual = 0, Final residual = 0, No Iterations 0
diagonal:  Solving for rhoE, Initial residual = 0, Final residual = 0, No Iterations 0
ExecutionTime = 0.01 s  ClockTime = 1 s

deltaT = 5.53633e-05
Mean and max Courant Numbers = 0.109511 0.202127
Time = 0.00183391

diagonal:  Solving for rho, Initial residual = 0, Final residual = 0, No Iterations 0
diagonal:  Solving for rhoUx, Initial residual = 0, Final residual = 0, No Iterations 0
diagonal:  Solving for rhoE, Initial residual = 0, Final residual = 0, No Iterations 0
ExecutionTime = 0.01 s  ClockTime = 1 s

deltaT = 5.53633e-05
Mean and max Courant Numbers = 0.10985 0.199695
Time = 0.00188927

diagonal:  Solving for rho, Initial residual = 0, Final residual = 0, No Iterations 0
diagonal:  Solving for rhoUx, Initial residual = 0, Final residual = 0, No Iterations 0
diagonal:  Solving for rhoE, Initial residual = 0, Final residual = 0, No Iterations 0
ExecutionTime = 0.01 s  ClockTime = 1 s

deltaT = 5.53633e-05
Mean and max Courant Numbers = 0.110172 0.202369
Time = 0.00194464

diagonal:  Solving for rho, Initial residual = 0, Final residual = 0, No Iterations 0
diagonal:  Solving for rhoUx, Initial residual = 0, Final residual = 0, No Iterations 0
diagonal:  Solving for rhoE, Initial residual = 0, Final residual = 0, No Iterations 0
ExecutionTime = 0.01 s  ClockTime = 1 s

deltaT = 5.53633e-05
Mean and max Courant Numbers = 0.110551 0.201391
Time = 0.002

diagonal:  Solving for rho, Initial residual = 0, Final residual = 0, No Iterations 0
diagonal:  Solving for rhoUx, Initial residual = 0, Final residual = 0, No Iterations 0
diagonal:  Solving for rhoE, Initial residual = 0, Final residual = 0, No Iterations 0
ExecutionTime = 0.01 s  ClockTime = 1 s

deltaT = 5.55556e-05
Mean and max Courant Numbers = 0.111272 0.19969
Time = 0.00205556

diagonal:  Solving for rho, Initial residual = 0, Final residual = 0, No Iterations 0
diagonal:  Solving for rhoUx, Initial residual = 0, Final residual = 0, No Iterations 0
diagonal:  Solving for rhoE, Initial residual = 0, Final residual = 0, No Iterations 0
ExecutionTime = 0.01 s  ClockTime = 1 s

deltaT = 5.55556e-05
Mean and max Courant Numbers = 0.111583 0.20214
Time = 0.00211111

diagonal:  Solving for rho, Initial residual = 0, Final residual = 0, No Iterations 0
diagonal:  Solving for rhoUx, Initial residual = 0, Final residual = 0, No Iterations 0
diagonal:  Solving for rhoE, Initial residual = 0, Final residual = 0, No Iterations 0
ExecutionTime = 0.01 s  ClockTime = 1 s

deltaT = 5.55556e-05
Mean and max Courant Numbers = 0.111967 0.201323
Time = 0.00216667

diagonal:  Solving for rho, Initial residual = 0, Final residual = 0, No Iterations 0
diagonal:  Solving for rhoUx, Initial residual = 0, Final residual = 0, No Iterations 0
diagonal:  Solving for rhoE, Initial residual = 0, Final residual = 0, No Iterations 0
ExecutionTime = 0.01 s  ClockTime = 1 s

deltaT = 5.55556e-05
Mean and max Courant Numbers = 0.112326 0.199237
Time = 0.00222222

diagonal:  Solving for rho, Initial residual = 0, Final residual = 0, No Iterations 0
diagonal:  Solving for rhoUx, Initial residual = 0, Final residual = 0, No Iterations 0
diagonal:  Solving for rhoE, Initial residual = 0, Final residual = 0, No Iterations 0
ExecutionTime = 0.01 s  ClockTime = 1 s

deltaT = 5.55556e-05
Mean and max Courant Numbers = 0.112634 0.201212
Time = 0.00227778

diagonal:  Solving for rho, Initial residual = 0, Final residual = 0, No Iterations 0
diagonal:  Solving for rhoUx, Initial residual = 0, Final residual = 0, No Iterations 0
diagonal:  Solving for rhoE, Initial residual = 0, Final residual = 0, No Iterations 0
ExecutionTime = 0.01 s  ClockTime = 1 s

deltaT = 5.55556e-05
Mean and max Courant Numbers = 0.112999 0.200879
Time = 0.00233333

diagonal:  Solving for rho, Initial residual = 0, Final residual = 0, No Iterations 0
diagonal:  Solving for rhoUx, Initial residual = 0, Final residual = 0, No Iterations 0
diagonal:  Solving for rhoE, Initial residual = 0, Final residual = 0, No Iterations 0
ExecutionTime = 0.01 s  ClockTime = 1 s

deltaT = 5.55556e-05
Mean and max Courant Numbers = 0.113364 0.198953
Time = 0.00238889

diagonal:  Solving for rho, Initial residual = 0, Final residual = 0, No Iterations 0
diagonal:  Solving for rhoUx, Initial residual = 0, Final residual = 0, No Iterations 0
diagonal:  Solving for rhoE, Initial residual = 0, Final residual = 0, No Iterations 0
ExecutionTime = 0.01 s  ClockTime = 1 s

deltaT = 5.55556e-05
Mean and max Courant Numbers = 0.113683 0.200201
Time = 0.00244444

diagonal:  Solving for rho, Initial residual = 0, Final residual = 0, No Iterations 0
diagonal:  Solving for rhoUx, Initial residual = 0, Final residual = 0, No Iterations 0
diagonal:  Solving for rhoE, Initial residual = 0, Final residual = 0, No Iterations 0
ExecutionTime = 0.01 s  ClockTime = 1 s

deltaT = 5.55556e-05
Mean and max Courant Numbers = 0.114039 0.200408
Time = 0.0025

diagonal:  Solving for rho, Initial residual = 0, Final residual = 0, No Iterations 0
diagonal:  Solving for rhoUx, Initial residual = 0, Final residual = 0, No Iterations 0
diagonal:  Solving for rhoE, Initial residual = 0, Final residual = 0, No Iterations 0
ExecutionTime = 0.01 s  ClockTime = 1 s

deltaT = 5.55556e-05
Mean and max Courant Numbers = 0.1144 0.198646
Time = 0.00255556

diagonal:  Solving for rho, Initial residual = 0, Final residual = 0, No Iterations 0
diagonal:  Solving for rhoUx, Initial residual = 0, Final residual = 0, No Iterations 0
diagonal:  Solving for rhoE, Initial residual = 0, Final residual = 0, No Iterations 0
ExecutionTime = 0.01 s  ClockTime = 1 s

deltaT = 5.55556e-05
Mean and max Courant Numbers = 0.114713 0.199034
Time = 0.00261111

diagonal:  Solving for rho, Initial residual = 0, Final residual = 0, No Iterations 0
diagonal:  Solving for rhoUx, Initial residual = 0, Final residual = 0, No Iterations 0
diagonal:  Solving for rhoE, Initial residual = 0, Final residual = 0, No Iterations 0
ExecutionTime = 0.02 s  ClockTime = 1 s

deltaT = 5.55556e-05
Mean and max Courant Numbers = 0.115069 0.199921
Time = 0.00266667

diagonal:  Solving for rho, Initial residual = 0, Final residual = 0, No Iterations 0
diagonal:  Solving for rhoUx, Initial residual = 0, Final residual = 0, No Iterations 0
diagonal:  Solving for rhoE, Initial residual = 0, Final residual = 0, No Iterations 0
ExecutionTime = 0.02 s  ClockTime = 1 s

deltaT = 5.55556e-05
Mean and max Courant Numbers = 0.115438 0.198248
Time = 0.00272222

diagonal:  Solving for rho, Initial residual = 0, Final residual = 0, No Iterations 0
diagonal:  Solving for rhoUx, Initial residual = 0, Final residual = 0, No Iterations 0
diagonal:  Solving for rhoE, Initial residual = 0, Final residual = 0, No Iterations 0
ExecutionTime = 0.02 s  ClockTime = 1 s

deltaT = 5.55556e-05
Mean and max Courant Numbers = 0.115749 0.197567
Time = 0.00277778

diagonal:  Solving for rho, Initial residual = 0, Final residual = 0, No Iterations 0
diagonal:  Solving for rhoUx, Initial residual = 0, Final residual = 0, No Iterations 0
diagonal:  Solving for rhoE, Initial residual = 0, Final residual = 0, No Iterations 0
ExecutionTime = 0.02 s  ClockTime = 1 s

deltaT = 5.55556e-05
Mean and max Courant Numbers = 0.116089 0.199468
Time = 0.00283333

diagonal:  Solving for rho, Initial residual = 0, Final residual = 0, No Iterations 0
diagonal:  Solving for rhoUx, Initial residual = 0, Final residual = 0, No Iterations 0
diagonal:  Solving for rhoE, Initial residual = 0, Final residual = 0, No Iterations 0
ExecutionTime = 0.02 s  ClockTime = 1 s

deltaT = 5.55556e-05
Mean and max Courant Numbers = 0.116464 0.197994
Time = 0.00288889

diagonal:  Solving for rho, Initial residual = 0, Final residual = 0, No Iterations 0
diagonal:  Solving for rhoUx, Initial residual = 0, Final residual = 0, No Iterations 0
diagonal:  Solving for rhoE, Initial residual = 0, Final residual = 0, No Iterations 0
ExecutionTime = 0.02 s  ClockTime = 1 s

deltaT = 5.55556e-05
Mean and max Courant Numbers = 0.116785 0.19652
Time = 0.00294444

diagonal:  Solving for rho, Initial residual = 0, Final residual = 0, No Iterations 0
diagonal:  Solving for rhoUx, Initial residual = 0, Final residual = 0, No Iterations 0
diagonal:  Solving for rhoE, Initial residual = 0, Final residual = 0, No Iterations 0
ExecutionTime = 0.02 s  ClockTime = 1 s

deltaT = 5.55556e-05
Mean and max Courant Numbers = 0.117114 0.198968
Time = 0.003

diagonal:  Solving for rho, Initial residual = 0, Final residual = 0, No Iterations 0
diagonal:  Solving for rhoUx, Initial residual = 0, Final residual = 0, No Iterations 0
diagonal:  Solving for rhoE, Initial residual = 0, Final residual = 0, No Iterations 0
ExecutionTime = 0.02 s  ClockTime = 1 s

deltaT = 5.55556e-05
Mean and max Courant Numbers = 0.117486 0.19776
Time = 0.00305556

diagonal:  Solving for rho, Initial residual = 0, Final residual = 0, No Iterations 0
diagonal:  Solving for rhoUx, Initial residual = 0, Final residual = 0, No Iterations 0
diagonal:  Solving for rhoE, Initial residual = 0, Final residual = 0, No Iterations 0
ExecutionTime = 0.02 s  ClockTime = 1 s

deltaT = 5.55556e-05
Mean and max Courant Numbers = 0.117815 0.19625
Time = 0.00311111

diagonal:  Solving for rho, Initial residual = 0, Final residual = 0, No Iterations 0
diagonal:  Solving for rhoUx, Initial residual = 0, Final residual = 0, No Iterations 0
diagonal:  Solving for rhoE, Initial residual = 0, Final residual = 0, No Iterations 0
ExecutionTime = 0.02 s  ClockTime = 1 s

deltaT = 5.55556e-05
Mean and max Courant Numbers = 0.118138 0.198365
Time = 0.00316667

diagonal:  Solving for rho, Initial residual = 0, Final residual = 0, No Iterations 0
diagonal:  Solving for rhoUx, Initial residual = 0, Final residual = 0, No Iterations 0
diagonal:  Solving for rhoE, Initial residual = 0, Final residual = 0, No Iterations 0
ExecutionTime = 0.02 s  ClockTime = 1 s

deltaT = 5.55556e-05
Mean and max Courant Numbers = 0.118509 0.197546
Time = 0.00322222

diagonal:  Solving for rho, Initial residual = 0, Final residual = 0, No Iterations 0
diagonal:  Solving for rhoUx, Initial residual = 0, Final residual = 0, No Iterations 0
diagonal:  Solving for rhoE, Initial residual = 0, Final residual = 0, No Iterations 0
ExecutionTime = 0.02 s  ClockTime = 1 s

deltaT = 5.55556e-05
Mean and max Courant Numbers = 0.118846 0.196016
Time = 0.00327778

diagonal:  Solving for rho, Initial residual = 0, Final residual = 0, No Iterations 0
diagonal:  Solving for rhoUx, Initial residual = 0, Final residual = 0, No Iterations 0
diagonal:  Solving for rhoE, Initial residual = 0, Final residual = 0, No Iterations 0
ExecutionTime = 0.02 s  ClockTime = 1 s

deltaT = 5.55556e-05
Mean and max Courant Numbers = 0.11916 0.197637
Time = 0.00333333

diagonal:  Solving for rho, Initial residual = 0, Final residual = 0, No Iterations 0
diagonal:  Solving for rhoUx, Initial residual = 0, Final residual = 0, No Iterations 0
diagonal:  Solving for rhoE, Initial residual = 0, Final residual = 0, No Iterations 0
ExecutionTime = 0.02 s  ClockTime = 1 s

deltaT = 5.55556e-05
Mean and max Courant Numbers = 0.119527 0.197323
Time = 0.00338889

diagonal:  Solving for rho, Initial residual = 0, Final residual = 0, No Iterations 0
diagonal:  Solving for rhoUx, Initial residual = 0, Final residual = 0, No Iterations 0
diagonal:  Solving for rhoE, Initial residual = 0, Final residual = 0, No Iterations 0
ExecutionTime = 0.02 s  ClockTime = 1 s

deltaT = 5.55556e-05
Mean and max Courant Numbers = 0.119877 0.195799
Time = 0.00344444

diagonal:  Solving for rho, Initial residual = 0, Final residual = 0, No Iterations 0
diagonal:  Solving for rhoUx, Initial residual = 0, Final residual = 0, No Iterations 0
diagonal:  Solving for rhoE, Initial residual = 0, Final residual = 0, No Iterations 0
ExecutionTime = 0.02 s  ClockTime = 1 s

deltaT = 5.55556e-05
Mean and max Courant Numbers = 0.120188 0.196733
Time = 0.0035

diagonal:  Solving for rho, Initial residual = 0, Final residual = 0, No Iterations 0
diagonal:  Solving for rhoUx, Initial residual = 0, Final residual = 0, No Iterations 0
diagonal:  Solving for rhoE, Initial residual = 0, Final residual = 0, No Iterations 0
ExecutionTime = 0.02 s  ClockTime = 1 s

deltaT = 5.55556e-05
Mean and max Courant Numbers = 0.120546 0.197044
Time = 0.00355556

diagonal:  Solving for rho, Initial residual = 0, Final residual = 0, No Iterations 0
diagonal:  Solving for rhoUx, Initial residual = 0, Final residual = 0, No Iterations 0
diagonal:  Solving for rhoE, Initial residual = 0, Final residual = 0, No Iterations 0
ExecutionTime = 0.02 s  ClockTime = 1 s

deltaT = 5.55556e-05
Mean and max Courant Numbers = 0.120906 0.195544
Time = 0.00361111

diagonal:  Solving for rho, Initial residual = 0, Final residual = 0, No Iterations 0
diagonal:  Solving for rhoUx, Initial residual = 0, Final residual = 0, No Iterations 0
diagonal:  Solving for rhoE, Initial residual = 0, Final residual = 0, No Iterations 0
ExecutionTime = 0.02 s  ClockTime = 1 s

deltaT = 5.55556e-05
Mean and max Courant Numbers = 0.121218 0.195575
Time = 0.00366667

diagonal:  Solving for rho, Initial residual = 0, Final residual = 0, No Iterations 0
diagonal:  Solving for rhoUx, Initial residual = 0, Final residual = 0, No Iterations 0
diagonal:  Solving for rhoE, Initial residual = 0, Final residual = 0, No Iterations 0
ExecutionTime = 0.02 s  ClockTime = 1 s

deltaT = 5.55556e-05
Mean and max Courant Numbers = 0.121568 0.196692
Time = 0.00372222

diagonal:  Solving for rho, Initial residual = 0, Final residual = 0, No Iterations 0
diagonal:  Solving for rhoUx, Initial residual = 0, Final residual = 0, No Iterations 0
diagonal:  Solving for rhoE, Initial residual = 0, Final residual = 0, No Iterations 0
ExecutionTime = 0.02 s  ClockTime = 1 s

deltaT = 5.55556e-05
Mean and max Courant Numbers = 0.121934 0.195254
Time = 0.00377778

diagonal:  Solving for rho, Initial residual = 0, Final residual = 0, No Iterations 0
diagonal:  Solving for rhoUx, Initial residual = 0, Final residual = 0, No Iterations 0
diagonal:  Solving for rhoE, Initial residual = 0, Final residual = 0, No Iterations 0
ExecutionTime = 0.02 s  ClockTime = 1 s

deltaT = 5.55556e-05
Mean and max Courant Numbers = 0.122253 0.194072
Time = 0.00383333

diagonal:  Solving for rho, Initial residual = 0, Final residual = 0, No Iterations 0
diagonal:  Solving for rhoUx, Initial residual = 0, Final residual = 0, No Iterations 0
diagonal:  Solving for rhoE, Initial residual = 0, Final residual = 0, No Iterations 0
ExecutionTime = 0.02 s  ClockTime = 1 s

deltaT = 5.55556e-05
Mean and max Courant Numbers = 0.122591 0.196294
Time = 0.00388889

diagonal:  Solving for rho, Initial residual = 0, Final residual = 0, No Iterations 0
diagonal:  Solving for rhoUx, Initial residual = 0, Final residual = 0, No Iterations 0
diagonal:  Solving for rhoE, Initial residual = 0, Final residual = 0, No Iterations 0
ExecutionTime = 0.02 s  ClockTime = 1 s

deltaT = 5.55556e-05
Mean and max Courant Numbers = 0.122961 0.195068
Time = 0.00394444

diagonal:  Solving for rho, Initial residual = 0, Final residual = 0, No Iterations 0
diagonal:  Solving for rhoUx, Initial residual = 0, Final residual = 0, No Iterations 0
diagonal:  Solving for rhoE, Initial residual = 0, Final residual = 0, No Iterations 0
ExecutionTime = 0.02 s  ClockTime = 1 s

deltaT = 5.55556e-05
Mean and max Courant Numbers = 0.123287 0.194356
Time = 0.004

diagonal:  Solving for rho, Initial residual = 0, Final residual = 0, No Iterations 0
diagonal:  Solving for rhoUx, Initial residual = 0, Final residual = 0, No Iterations 0
diagonal:  Solving for rhoE, Initial residual = 0, Final residual = 0, No Iterations 0
ExecutionTime = 0.02 s  ClockTime = 1 s

deltaT = 5.88235e-05
Mean and max Courant Numbers = 0.130887 0.207309
Time = 0.00405882

diagonal:  Solving for rho, Initial residual = 0, Final residual = 0, No Iterations 0
diagonal:  Solving for rhoUx, Initial residual = 0, Final residual = 0, No Iterations 0
diagonal:  Solving for rhoE, Initial residual = 0, Final residual = 0, No Iterations 0
ExecutionTime = 0.02 s  ClockTime = 1 s

deltaT = 5.53633e-05
Mean and max Courant Numbers = 0.123582 0.194258
Time = 0.00411419

diagonal:  Solving for rho, Initial residual = 0, Final residual = 0, No Iterations 0
diagonal:  Solving for rhoUx, Initial residual = 0, Final residual = 0, No Iterations 0
diagonal:  Solving for rhoE, Initial residual = 0, Final residual = 0, No Iterations 0
ExecutionTime = 0.02 s  ClockTime = 1 s

deltaT = 5.53633e-05
Mean and max Courant Numbers = 0.123913 0.1941
Time = 0.00416955

diagonal:  Solving for rho, Initial residual = 0, Final residual = 0, No Iterations 0
diagonal:  Solving for rhoUx, Initial residual = 0, Final residual = 0, No Iterations 0
diagonal:  Solving for rhoE, Initial residual = 0, Final residual = 0, No Iterations 0
ExecutionTime = 0.02 s  ClockTime = 1 s

deltaT = 5.53633e-05
Mean and max Courant Numbers = 0.124232 0.194565
Time = 0.00422491

diagonal:  Solving for rho, Initial residual = 0, Final residual = 0, No Iterations 0
diagonal:  Solving for rhoUx, Initial residual = 0, Final residual = 0, No Iterations 0
diagonal:  Solving for rhoE, Initial residual = 0, Final residual = 0, No Iterations 0
ExecutionTime = 0.02 s  ClockTime = 1 s

deltaT = 5.53633e-05
Mean and max Courant Numbers = 0.1246 0.194752
Time = 0.00428028

diagonal:  Solving for rho, Initial residual = 0, Final residual = 0, No Iterations 0
diagonal:  Solving for rhoUx, Initial residual = 0, Final residual = 0, No Iterations 0
diagonal:  Solving for rhoE, Initial residual = 0, Final residual = 0, No Iterations 0
ExecutionTime = 0.02 s  ClockTime = 1 s

deltaT = 5.53633e-05
Mean and max Courant Numbers = 0.124949 0.19489
Time = 0.00433564

diagonal:  Solving for rho, Initial residual = 0, Final residual = 0, No Iterations 0
diagonal:  Solving for rhoUx, Initial residual = 0, Final residual = 0, No Iterations 0
diagonal:  Solving for rhoE, Initial residual = 0, Final residual = 0, No Iterations 0
ExecutionTime = 0.02 s  ClockTime = 1 s

deltaT = 5.53633e-05
Mean and max Courant Numbers = 0.125267 0.195091
Time = 0.004391

diagonal:  Solving for rho, Initial residual = 0, Final residual = 0, No Iterations 0
diagonal:  Solving for rhoUx, Initial residual = 0, Final residual = 0, No Iterations 0
diagonal:  Solving for rhoE, Initial residual = 0, Final residual = 0, No Iterations 0
ExecutionTime = 0.02 s  ClockTime = 1 s

deltaT = 5.53633e-05
Mean and max Courant Numbers = 0.125628 0.195259
Time = 0.00444637

diagonal:  Solving for rho, Initial residual = 0, Final residual = 0, No Iterations 0
diagonal:  Solving for rhoUx, Initial residual = 0, Final residual = 0, No Iterations 0
diagonal:  Solving for rhoE, Initial residual = 0, Final residual = 0, No Iterations 0
ExecutionTime = 0.02 s  ClockTime = 1 s

deltaT = 5.53633e-05
Mean and max Courant Numbers = 0.12598 0.194978
Time = 0.00450173

diagonal:  Solving for rho, Initial residual = 0, Final residual = 0, No Iterations 0
diagonal:  Solving for rhoUx, Initial residual = 0, Final residual = 0, No Iterations 0
diagonal:  Solving for rhoE, Initial residual = 0, Final residual = 0, No Iterations 0
ExecutionTime = 0.02 s  ClockTime = 1 s

deltaT = 5.53633e-05
Mean and max Courant Numbers = 0.126284 0.195095
Time = 0.00455709

diagonal:  Solving for rho, Initial residual = 0, Final residual = 0, No Iterations 0
diagonal:  Solving for rhoUx, Initial residual = 0, Final residual = 0, No Iterations 0
diagonal:  Solving for rhoE, Initial residual = 0, Final residual = 0, No Iterations 0
ExecutionTime = 0.02 s  ClockTime = 1 s

deltaT = 5.53633e-05
Mean and max Courant Numbers = 0.12662 0.19494
Time = 0.00461246

diagonal:  Solving for rho, Initial residual = 0, Final residual = 0, No Iterations 0
diagonal:  Solving for rhoUx, Initial residual = 0, Final residual = 0, No Iterations 0
diagonal:  Solving for rhoE, Initial residual = 0, Final residual = 0, No Iterations 0
ExecutionTime = 0.02 s  ClockTime = 1 s

deltaT = 5.53633e-05
Mean and max Courant Numbers = 0.126976 0.194852
Time = 0.00466782

diagonal:  Solving for rho, Initial residual = 0, Final residual = 0, No Iterations 0
diagonal:  Solving for rhoUx, Initial residual = 0, Final residual = 0, No Iterations 0
diagonal:  Solving for rhoE, Initial residual = 0, Final residual = 0, No Iterations 0
ExecutionTime = 0.02 s  ClockTime = 1 s

deltaT = 5.53633e-05
Mean and max Courant Numbers = 0.127297 0.194903
Time = 0.00472318

diagonal:  Solving for rho, Initial residual = 0, Final residual = 0, No Iterations 0
diagonal:  Solving for rhoUx, Initial residual = 0, Final residual = 0, No Iterations 0
diagonal:  Solving for rhoE, Initial residual = 0, Final residual = 0, No Iterations 0
ExecutionTime = 0.02 s  ClockTime = 1 s

deltaT = 5.53633e-05
Mean and max Courant Numbers = 0.127633 0.194776
Time = 0.00477855

diagonal:  Solving for rho, Initial residual = 0, Final residual = 0, No Iterations 0
diagonal:  Solving for rhoUx, Initial residual = 0, Final residual = 0, No Iterations 0
diagonal:  Solving for rhoE, Initial residual = 0, Final residual = 0, No Iterations 0
ExecutionTime = 0.02 s  ClockTime = 1 s

deltaT = 5.53633e-05
Mean and max Courant Numbers = 0.127993 0.19477
Time = 0.00483391

diagonal:  Solving for rho, Initial residual = 0, Final residual = 0, No Iterations 0
diagonal:  Solving for rhoUx, Initial residual = 0, Final residual = 0, No Iterations 0
diagonal:  Solving for rhoE, Initial residual = 0, Final residual = 0, No Iterations 0
ExecutionTime = 0.02 s  ClockTime = 1 s

deltaT = 5.53633e-05
Mean and max Courant Numbers = 0.128315 0.194736
Time = 0.00488927

diagonal:  Solving for rho, Initial residual = 0, Final residual = 0, No Iterations 0
diagonal:  Solving for rhoUx, Initial residual = 0, Final residual = 0, No Iterations 0
diagonal:  Solving for rhoE, Initial residual = 0, Final residual = 0, No Iterations 0
ExecutionTime = 0.02 s  ClockTime = 1 s

deltaT = 5.53633e-05
Mean and max Courant Numbers = 0.128633 0.194673
Time = 0.00494464

diagonal:  Solving for rho, Initial residual = 0, Final residual = 0, No Iterations 0
diagonal:  Solving for rhoUx, Initial residual = 0, Final residual = 0, No Iterations 0
diagonal:  Solving for rhoE, Initial residual = 0, Final residual = 0, No Iterations 0
ExecutionTime = 0.02 s  ClockTime = 1 s

deltaT = 5.53633e-05
Mean and max Courant Numbers = 0.129 0.194674
Time = 0.005

diagonal:  Solving for rho, Initial residual = 0, Final residual = 0, No Iterations 0
diagonal:  Solving for rhoUx, Initial residual = 0, Final residual = 0, No Iterations 0
diagonal:  Solving for rhoE, Initial residual = 0, Final residual = 0, No Iterations 0
ExecutionTime = 0.02 s  ClockTime = 1 s

deltaT = 5.55556e-05
Mean and max Courant Numbers = 0.129785 0.195297
Time = 0.00505556

diagonal:  Solving for rho, Initial residual = 0, Final residual = 0, No Iterations 0
diagonal:  Solving for rhoUx, Initial residual = 0, Final residual = 0, No Iterations 0
diagonal:  Solving for rhoE, Initial residual = 0, Final residual = 0, No Iterations 0
ExecutionTime = 0.02 s  ClockTime = 1 s

deltaT = 5.55556e-05
Mean and max Courant Numbers = 0.130097 0.195237
Time = 0.00511111

diagonal:  Solving for rho, Initial residual = 0, Final residual = 0, No Iterations 0
diagonal:  Solving for rhoUx, Initial residual = 0, Final residual = 0, No Iterations 0
diagonal:  Solving for rhoE, Initial residual = 0, Final residual = 0, No Iterations 0
ExecutionTime = 0.02 s  ClockTime = 1 s

deltaT = 5.55556e-05
Mean and max Courant Numbers = 0.130452 0.195228
Time = 0.00516667

diagonal:  Solving for rho, Initial residual = 0, Final residual = 0, No Iterations 0
diagonal:  Solving for rhoUx, Initial residual = 0, Final residual = 0, No Iterations 0
diagonal:  Solving for rhoE, Initial residual = 0, Final residual = 0, No Iterations 0
ExecutionTime = 0.02 s  ClockTime = 1 s

deltaT = 5.55556e-05
Mean and max Courant Numbers = 0.130802 0.195216
Time = 0.00522222

diagonal:  Solving for rho, Initial residual = 0, Final residual = 0, No Iterations 0
diagonal:  Solving for rhoUx, Initial residual = 0, Final residual = 0, No Iterations 0
diagonal:  Solving for rhoE, Initial residual = 0, Final residual = 0, No Iterations 0
ExecutionTime = 0.02 s  ClockTime = 1 s

deltaT = 5.55556e-05
Mean and max Courant Numbers = 0.131118 0.19516
Time = 0.00527778

diagonal:  Solving for rho, Initial residual = 0, Final residual = 0, No Iterations 0
diagonal:  Solving for rhoUx, Initial residual = 0, Final residual = 0, No Iterations 0
diagonal:  Solving for rhoE, Initial residual = 0, Final residual = 0, No Iterations 0
ExecutionTime = 0.02 s  ClockTime = 1 s

deltaT = 5.55556e-05
Mean and max Courant Numbers = 0.131461 0.195153
Time = 0.00533333

diagonal:  Solving for rho, Initial residual = 0, Final residual = 0, No Iterations 0
diagonal:  Solving for rhoUx, Initial residual = 0, Final residual = 0, No Iterations 0
diagonal:  Solving for rhoE, Initial residual = 0, Final residual = 0, No Iterations 0
ExecutionTime = 0.02 s  ClockTime = 1 s

deltaT = 5.55556e-05
Mean and max Courant Numbers = 0.131818 0.195139
Time = 0.00538889

diagonal:  Solving for rho, Initial residual = 0, Final residual = 0, No Iterations 0
diagonal:  Solving for rhoUx, Initial residual = 0, Final residual = 0, No Iterations 0
diagonal:  Solving for rhoE, Initial residual = 0, Final residual = 0, No Iterations 0
ExecutionTime = 0.02 s  ClockTime = 1 s

deltaT = 5.55556e-05
Mean and max Courant Numbers = 0.132135 0.195081
Time = 0.00544444

diagonal:  Solving for rho, Initial residual = 0, Final residual = 0, No Iterations 0
diagonal:  Solving for rhoUx, Initial residual = 0, Final residual = 0, No Iterations 0
diagonal:  Solving for rhoE, Initial residual = 0, Final residual = 0, No Iterations 0
ExecutionTime = 0.02 s  ClockTime = 1 s

deltaT = 5.55556e-05
Mean and max Courant Numbers = 0.132467 0.195102
Time = 0.0055

diagonal:  Solving for rho, Initial residual = 0, Final residual = 0, No Iterations 0
diagonal:  Solving for rhoUx, Initial residual = 0, Final residual = 0, No Iterations 0
diagonal:  Solving for rhoE, Initial residual = 0, Final residual = 0, No Iterations 0
ExecutionTime = 0.02 s  ClockTime = 1 s

deltaT = 5.55556e-05
Mean and max Courant Numbers = 0.13283 0.195064
Time = 0.00555556

diagonal:  Solving for rho, Initial residual = 0, Final residual = 0, No Iterations 0
diagonal:  Solving for rhoUx, Initial residual = 0, Final residual = 0, No Iterations 0
diagonal:  Solving for rhoE, Initial residual = 0, Final residual = 0, No Iterations 0
ExecutionTime = 0.02 s  ClockTime = 1 s

deltaT = 5.55556e-05
Mean and max Courant Numbers = 0.133155 0.195025
Time = 0.00561111

diagonal:  Solving for rho, Initial residual = 0, Final residual = 0, No Iterations 0
diagonal:  Solving for rhoUx, Initial residual = 0, Final residual = 0, No Iterations 0
diagonal:  Solving for rhoE, Initial residual = 0, Final residual = 0, No Iterations 0
ExecutionTime = 0.02 s  ClockTime = 1 s

deltaT = 5.55556e-05
Mean and max Courant Numbers = 0.133474 0.195048
Time = 0.00566667

diagonal:  Solving for rho, Initial residual = 0, Final residual = 0, No Iterations 0
diagonal:  Solving for rhoUx, Initial residual = 0, Final residual = 0, No Iterations 0
diagonal:  Solving for rhoE, Initial residual = 0, Final residual = 0, No Iterations 0
ExecutionTime = 0.02 s  ClockTime = 1 s

deltaT = 5.55556e-05
Mean and max Courant Numbers = 0.133837 0.194976
Time = 0.00572222

diagonal:  Solving for rho, Initial residual = 0, Final residual = 0, No Iterations 0
diagonal:  Solving for rhoUx, Initial residual = 0, Final residual = 0, No Iterations 0
diagonal:  Solving for rhoE, Initial residual = 0, Final residual = 0, No Iterations 0
ExecutionTime = 0.02 s  ClockTime = 1 s

deltaT = 5.55556e-05
Mean and max Courant Numbers = 0.134174 0.194977
Time = 0.00577778

diagonal:  Solving for rho, Initial residual = 0, Final residual = 0, No Iterations 0
diagonal:  Solving for rhoUx, Initial residual = 0, Final residual = 0, No Iterations 0
diagonal:  Solving for rhoE, Initial residual = 0, Final residual = 0, No Iterations 0
ExecutionTime = 0.03 s  ClockTime = 1 s

deltaT = 5.55556e-05
Mean and max Courant Numbers = 0.134483 0.194973
Time = 0.00583333

diagonal:  Solving for rho, Initial residual = 0, Final residual = 0, No Iterations 0
diagonal:  Solving for rhoUx, Initial residual = 0, Final residual = 0, No Iterations 0
diagonal:  Solving for rhoE, Initial residual = 0, Final residual = 0, No Iterations 0
ExecutionTime = 0.03 s  ClockTime = 1 s

deltaT = 5.55556e-05
Mean and max Courant Numbers = 0.134838 0.194918
Time = 0.00588889

diagonal:  Solving for rho, Initial residual = 0, Final residual = 0, No Iterations 0
diagonal:  Solving for rhoUx, Initial residual = 0, Final residual = 0, No Iterations 0
diagonal:  Solving for rhoE, Initial residual = 0, Final residual = 0, No Iterations 0
ExecutionTime = 0.03 s  ClockTime = 1 s

deltaT = 5.55556e-05
Mean and max Courant Numbers = 0.135188 0.19492
Time = 0.00594444

diagonal:  Solving for rho, Initial residual = 0, Final residual = 0, No Iterations 0
diagonal:  Solving for rhoUx, Initial residual = 0, Final residual = 0, No Iterations 0
diagonal:  Solving for rhoE, Initial residual = 0, Final residual = 0, No Iterations 0
ExecutionTime = 0.03 s  ClockTime = 1 s

deltaT = 5.55556e-05
Mean and max Courant Numbers = 0.135499 0.19489
Time = 0.006

diagonal:  Solving for rho, Initial residual = 0, Final residual = 0, No Iterations 0
diagonal:  Solving for rhoUx, Initial residual = 0, Final residual = 0, No Iterations 0
diagonal:  Solving for rhoE, Initial residual = 0, Final residual = 0, No Iterations 0
ExecutionTime = 0.03 s  ClockTime = 1 s

deltaT = 5.55556e-05
Mean and max Courant Numbers = 0.135841 0.194879
Time = 0.00605556

diagonal:  Solving for rho, Initial residual = 0, Final residual = 0, No Iterations 0
diagonal:  Solving for rhoUx, Initial residual = 0, Final residual = 0, No Iterations 0
diagonal:  Solving for rhoE, Initial residual = 0, Final residual = 0, No Iterations 0
ExecutionTime = 0.03 s  ClockTime = 1 s

deltaT = 5.55556e-05
Mean and max Courant Numbers = 0.136201 0.194871
Time = 0.00611111

diagonal:  Solving for rho, Initial residual = 0, Final residual = 0, No Iterations 0
diagonal:  Solving for rhoUx, Initial residual = 0, Final residual = 0, No Iterations 0
diagonal:  Solving for rhoE, Initial residual = 0, Final residual = 0, No Iterations 0
ExecutionTime = 0.03 s  ClockTime = 1 s

deltaT = 5.55556e-05
Mean and max Courant Numbers = 0.13652 0.194819
Time = 0.00616667

diagonal:  Solving for rho, Initial residual = 0, Final residual = 0, No Iterations 0
diagonal:  Solving for rhoUx, Initial residual = 0, Final residual = 0, No Iterations 0
diagonal:  Solving for rhoE, Initial residual = 0, Final residual = 0, No Iterations 0
ExecutionTime = 0.03 s  ClockTime = 1 s

deltaT = 5.55556e-05
Mean and max Courant Numbers = 0.136849 0.194834
Time = 0.00622222

diagonal:  Solving for rho, Initial residual = 0, Final residual = 0, No Iterations 0
diagonal:  Solving for rhoUx, Initial residual = 0, Final residual = 0, No Iterations 0
diagonal:  Solving for rhoE, Initial residual = 0, Final residual = 0, No Iterations 0
ExecutionTime = 0.03 s  ClockTime = 1 s

deltaT = 5.55556e-05
Mean and max Courant Numbers = 0.137211 0.194815
Time = 0.00627778

diagonal:  Solving for rho, Initial residual = 0, Final residual = 0, No Iterations 0
diagonal:  Solving for rhoUx, Initial residual = 0, Final residual = 0, No Iterations 0
diagonal:  Solving for rhoE, Initial residual = 0, Final residual = 0, No Iterations 0
ExecutionTime = 0.03 s  ClockTime = 1 s

deltaT = 5.55556e-05
Mean and max Courant Numbers = 0.137542 0.194809
Time = 0.00633333

diagonal:  Solving for rho, Initial residual = 0, Final residual = 0, No Iterations 0
diagonal:  Solving for rhoUx, Initial residual = 0, Final residual = 0, No Iterations 0
diagonal:  Solving for rhoE, Initial residual = 0, Final residual = 0, No Iterations 0
ExecutionTime = 0.03 s  ClockTime = 1 s

deltaT = 5.55556e-05
Mean and max Courant Numbers = 0.137858 0.194779
Time = 0.00638889

diagonal:  Solving for rho, Initial residual = 0, Final residual = 0, No Iterations 0
diagonal:  Solving for rhoUx, Initial residual = 0, Final residual = 0, No Iterations 0
diagonal:  Solving for rhoE, Initial residual = 0, Final residual = 0, No Iterations 0
ExecutionTime = 0.03 s  ClockTime = 1 s

deltaT = 5.55556e-05
Mean and max Courant Numbers = 0.138219 0.194738
Time = 0.00644444

diagonal:  Solving for rho, Initial residual = 0, Final residual = 0, No Iterations 0
diagonal:  Solving for rhoUx, Initial residual = 0, Final residual = 0, No Iterations 0
diagonal:  Solving for rhoE, Initial residual = 0, Final residual = 0, No Iterations 0
ExecutionTime = 0.03 s  ClockTime = 1 s

deltaT = 5.55556e-05
Mean and max Courant Numbers = 0.138563 0.194747
Time = 0.0065

diagonal:  Solving for rho, Initial residual = 0, Final residual = 0, No Iterations 0
diagonal:  Solving for rhoUx, Initial residual = 0, Final residual = 0, No Iterations 0
diagonal:  Solving for rhoE, Initial residual = 0, Final residual = 0, No Iterations 0
ExecutionTime = 0.03 s  ClockTime = 1 s

deltaT = 5.55556e-05
Mean and max Courant Numbers = 0.138873 0.194723
Time = 0.00655556

diagonal:  Solving for rho, Initial residual = 0, Final residual = 0, No Iterations 0
diagonal:  Solving for rhoUx, Initial residual = 0, Final residual = 0, No Iterations 0
diagonal:  Solving for rhoE, Initial residual = 0, Final residual = 0, No Iterations 0
ExecutionTime = 0.03 s  ClockTime = 1 s

deltaT = 5.55556e-05
Mean and max Courant Numbers = 0.139224 0.194897
Time = 0.00661111

diagonal:  Solving for rho, Initial residual = 0, Final residual = 0, No Iterations 0
diagonal:  Solving for rhoUx, Initial residual = 0, Final residual = 0, No Iterations 0
diagonal:  Solving for rhoE, Initial residual = 0, Final residual = 0, No Iterations 0
ExecutionTime = 0.03 s  ClockTime = 1 s

deltaT = 5.55556e-05
Mean and max Courant Numbers = 0.139581 0.195075
Time = 0.00666667

diagonal:  Solving for rho, Initial residual = 0, Final residual = 0, No Iterations 0
diagonal:  Solving for rhoUx, Initial residual = 0, Final residual = 0, No Iterations 0
diagonal:  Solving for rhoE, Initial residual = 0, Final residual = 0, No Iterations 0
ExecutionTime = 0.03 s  ClockTime = 1 s

deltaT = 5.55556e-05
Mean and max Courant Numbers = 0.139898 0.195135
Time = 0.00672222

diagonal:  Solving for rho, Initial residual = 0, Final residual = 0, No Iterations 0
diagonal:  Solving for rhoUx, Initial residual = 0, Final residual = 0, No Iterations 0
diagonal:  Solving for rhoE, Initial residual = 0, Final residual = 0, No Iterations 0
ExecutionTime = 0.03 s  ClockTime = 1 s

deltaT = 5.55556e-05
Mean and max Courant Numbers = 0.140236 0.195375
Time = 0.00677778

diagonal:  Solving for rho, Initial residual = 0, Final residual = 0, No Iterations 0
diagonal:  Solving for rhoUx, Initial residual = 0, Final residual = 0, No Iterations 0
diagonal:  Solving for rhoE, Initial residual = 0, Final residual = 0, No Iterations 0
ExecutionTime = 0.03 s  ClockTime = 1 s

deltaT = 5.55556e-05
Mean and max Courant Numbers = 0.140596 0.195329
Time = 0.00683333

diagonal:  Solving for rho, Initial residual = 0, Final residual = 0, No Iterations 0
diagonal:  Solving for rhoUx, Initial residual = 0, Final residual = 0, No Iterations 0
diagonal:  Solving for rhoE, Initial residual = 0, Final residual = 0, No Iterations 0
ExecutionTime = 0.03 s  ClockTime = 1 s

deltaT = 5.55556e-05
Mean and max Courant Numbers = 0.140912 0.195196
Time = 0.00688889

diagonal:  Solving for rho, Initial residual = 0, Final residual = 0, No Iterations 0
diagonal:  Solving for rhoUx, Initial residual = 0, Final residual = 0, No Iterations 0
diagonal:  Solving for rhoE, Initial residual = 0, Final residual = 0, No Iterations 0
ExecutionTime = 0.03 s  ClockTime = 1 s

deltaT = 5.55556e-05
Mean and max Courant Numbers = 0.141221 0.195186
Time = 0.00694444

diagonal:  Solving for rho, Initial residual = 0, Final residual = 0, No Iterations 0
diagonal:  Solving for rhoUx, Initial residual = 0, Final residual = 0, No Iterations 0
diagonal:  Solving for rhoE, Initial residual = 0, Final residual = 0, No Iterations 0
ExecutionTime = 0.03 s  ClockTime = 1 s

deltaT = 5.55556e-05
Mean and max Courant Numbers = 0.141572 0.195007
Time = 0.007

diagonal:  Solving for rho, Initial residual = 0, Final residual = 0, No Iterations 0
diagonal:  Solving for rhoUx, Initial residual = 0, Final residual = 0, No Iterations 0
diagonal:  Solving for rhoE, Initial residual = 0, Final residual = 0, No Iterations 0
ExecutionTime = 0.03 s  ClockTime = 1 s

End

